drugbank_target|Q5SIH3 30S ribosomal protein Thx (DB08185)
 OpenBabel12092120483D

494498  0  0  0  0  0  0  0  0999 V2000
   -0.9080    1.9825   -0.1171 H   0  0  0  0  0 15  0  0  0  0  0  0
    0.0000    1.5760    0.0000 N   0  0  0  0  0 15  0  0  0  0  0  0
    0.9330    2.0387    1.0253 C   0  0  0  0  0 15  0  0  0  0  0  0
    1.9110    0.9285    1.3348 C   0  0  0  0  0 15  0  0  0  0  0  0
    3.0950    1.1967    1.4564 O   0  0  0  0  0 15  0  0  0  0  0  0
    0.2220    2.4363    2.3529 C   0  0  0  0  0 15  0  0  0  0  0  0
   -0.7320    3.6537    2.2001 C   0  0  0  0  0 15  0  0  0  0  0  0
    0.1010    5.1329    1.5261 S   0  0  0  0  0 15  0  0  0  0  0  0
    1.2570    5.5632    2.8680 C   0  0  0  0  0 15  0  0  0  0  0  0
    1.4900    2.9052    0.6314 H   0  0  0  0  0 15  0  0  0  0  0  0
   -0.9770    1.5295    0.2109 H   0  0  0  0  0 15  0  0  0  0  0  0
    0.9810    2.6720    3.1163 H   0  0  0  0  0 15  0  0  0  0  0  0
   -0.3580    1.5738    2.7183 H   0  0  0  0  0 15  0  0  0  0  0  0
   -1.1650    3.9094    3.1809 H   0  0  0  0  0 15  0  0  0  0  0  0
   -1.5630    3.4180    1.5182 H   0  0  0  0  0 15  0  0  0  0  0  0
    0.7290    5.5878    3.8310 H   0  0  0  0  0 15  0  0  0  0  0  0
    1.6720    6.5627    2.6593 H   0  0  0  0  0 15  0  0  0  0  0  0
    2.0800    4.8389    2.9071 H   0  0  0  0  0 15  0  0  0  0  0  0
    1.4781   -0.2728    1.5522 N   0  0  0  0  0 15  0  0  0  0  0  0
    2.7261   -1.0023    1.7549 C   0  0  0  0  0 15  0  0  0  0  0  0
    3.0471   -1.8681    0.5592 C   0  0  0  0  0 15  0  0  0  0  0  0
    2.3171   -1.9121   -0.4259 O   0  0  0  0  0 15  0  0  0  0  0  0
    0.8971   -0.3731    0.6472 H   0  0  0  0  0 15  0  0  0  0  0  0
    3.5591   -0.2969    1.9262 H   0  0  0  0  0 15  0  0  0  0  0  0
    2.6551   -1.6391    2.6559 H   0  0  0  0  0 15  0  0  0  0  0  0
    2.9562   -1.4816   -0.5373 N   0  0  0  0  0 15  0  0  0  0  0  0
    3.9032   -1.6214   -1.6426 C   0  0  0  0  0 15  0  0  0  0  0  0
    4.8732   -0.4637   -1.5950 C   0  0  0  0  0 15  0  0  0  0  0  0
    6.0582   -0.6862   -1.7803 O   0  0  0  0  0 15  0  0  0  0  0  0
    3.1982   -1.6603   -3.0254 C   0  0  0  0  0 15  0  0  0  0  0  0
    2.3112   -2.9285   -3.1758 C   0  0  0  0  0 15  0  0  0  0  0  0
    1.4462   -2.8795   -4.4638 C   0  0  0  0  0 15  0  0  0  0  0  0
    0.4852   -4.0952   -4.5493 C   0  0  0  0  0 15  0  0  0  0  0  0
   -0.3778   -4.0273   -5.7511 N   0  0  0  0  0 15  0  0  0  0  0  0
    4.4622   -2.5653   -1.5165 H   0  0  0  0  0 15  0  0  0  0  0  0
    1.9992   -1.2722   -0.7384 H   0  0  0  0  0 15  0  0  0  0  0  0
    3.9572   -1.6626   -3.8264 H   0  0  0  0  0 15  0  0  0  0  0  0
    2.5872   -0.7513   -3.1393 H   0  0  0  0  0 15  0  0  0  0  0  0
    1.6392   -3.0240   -2.3078 H   0  0  0  0  0 15  0  0  0  0  0  0
    2.9512   -3.8282   -3.1976 H   0  0  0  0  0 15  0  0  0  0  0  0
    2.1052   -2.8655   -5.3477 H   0  0  0  0  0 15  0  0  0  0  0  0
    0.8442   -1.9570   -4.4671 H   0  0  0  0  0 15  0  0  0  0  0  0
   -0.1508   -4.1120   -3.6496 H   0  0  0  0  0 15  0  0  0  0  0  0
    1.0742   -5.0292   -4.5635 H   0  0  0  0  0 15  0  0  0  0  0  0
   -0.9798   -3.1330   -5.7635 H   0  0  0  0  0 15  0  0  0  0  0  0
   -1.0628   -4.8640   -5.7875 H   0  0  0  0  0 15  0  0  0  0  0  0
    0.2052   -4.0538   -6.6580 H   0  0  0  0  0 15  0  0  0  0  0  0
    4.4343    0.7856   -1.3662 N   0  0  0  0  0 15  0  0  0  0  0  0
    5.6823    1.5406   -1.3081 C   0  0  0  0  0 15  0  0  0  0  0  0
    6.0033    1.9468    0.1112 C   0  0  0  0  0 15  0  0  0  0  0  0
    5.2733    1.6524    1.0522 O   0  0  0  0  0 15  0  0  0  0  0  0
    3.8533    0.5714   -0.4812 H   0  0  0  0  0 15  0  0  0  0  0  0
    6.5153    0.9358   -1.7096 H   0  0  0  0  0 15  0  0  0  0  0  0
    5.6113    2.4464   -1.9380 H   0  0  0  0  0 15  0  0  0  0  0  0
    5.9124    1.2097    1.0102 N   0  0  0  0  0 15  0  0  0  0  0  0
    7.1894    0.9326    1.7193 C   0  0  0  0  0 15  0  0  0  0  0  0
    7.5694   -0.5569    2.0362 C   0  0  0  0  0 15  0  0  0  0  0  0
    6.9174   -1.5204    1.7058 O   0  0  0  0  0 15  0  0  0  0  0  0
    7.1274    1.8123    2.9825 C   0  0  0  0  0 15  0  0  0  0  0  0
    8.4754    2.0580    3.7139 C   0  0  0  0  0 15  0  0  0  0  0  0
    9.4994    1.7854    3.0822 O   0  0  0  0  0 15  0  0  0  0  0  0
    8.3584    2.5189    4.8499 O   0  0  0  0  0 15  0  0  0  0  0  0
    5.4524    0.3493    0.7496 H   0  0  0  0  0 15  0  0  0  0  0  0
    7.9984    1.3187    1.0681 H   0  0  0  0  0 15  0  0  0  0  0  0
    6.7704    2.8207    2.7121 H   0  0  0  0  0 15  0  0  0  0  0  0
    6.3934    1.4267    3.7112 H   0  0  0  0  0 15  0  0  0  0  0  0
    7.3905   -1.2043    1.0166 N   0  0  0  0  0 15  0  0  0  0  0  0
    8.8065   -1.4185    0.7314 C   0  0  0  0  0 15  0  0  0  0  0  0
    9.0065   -1.8936   -0.6889 C   0  0  0  0  0 15  0  0  0  0  0  0
    8.0625   -2.0625   -1.4567 O   0  0  0  0  0 15  0  0  0  0  0  0
    9.3755   -2.4402    1.7571 C   0  0  0  0  0 15  0  0  0  0  0  0
   10.9235   -2.5778    1.7753 C   0  0  0  0  0 15  0  0  0  0  0  0
   11.3985   -3.6319    2.7902 C   0  0  0  0  0 15  0  0  0  0  0  0
   12.8895   -3.7068    2.7776 N   0  0  0  0  0 15  0  0  0  0  0  0
   13.6245   -4.5190    3.5295 C   0  0  0  0  0 15  0  0  0  0  0  0
   13.1205   -5.3692    4.3782 N   0  0  0  0  0 15  0  0  0  0  0  0
   14.9135   -4.4643    3.4155 N   0  0  0  0  0 15  0  0  0  0  0  0
    7.0645   -0.8791    1.9335 H   0  0  0  0  0 15  0  0  0  0  0  0
    9.3275   -0.4484    0.8352 H   0  0  0  0  0 15  0  0  0  0  0  0
    9.0335   -2.1611    2.7747 H   0  0  0  0  0 15  0  0  0  0  0  0
    8.9075   -3.4301    1.5693 H   0  0  0  0  0 15  0  0  0  0  0  0
   11.2945   -2.8502    0.7646 H   0  0  0  0  0 15  0  0  0  0  0  0
   11.3755   -1.5899    2.0039 H   0  0  0  0  0 15  0  0  0  0  0  0
   11.0195   -3.3670    3.8026 H   0  0  0  0  0 15  0  0  0  0  0  0
   10.9495   -4.6161    2.5343 H   0  0  0  0  0 15  0  0  0  0  0  0
   13.4405   -3.0994    2.1620 H   0  0  0  0  0 15  0  0  0  0  0  0
   13.7535   -5.9598    4.9196 H   0  0  0  0  0 15  0  0  0  0  0  0
   12.0985   -5.3642    4.4190 H   0  0  0  0  0 15  0  0  0  0  0  0
   15.2895   -3.7904    2.7467 H   0  0  0  0  0 15  0  0  0  0  0  0
   15.4625   -5.0949    4.0040 H   0  0  0  0  0 15  0  0  0  0  0  0
    8.8686   -0.7928   -1.3621 N   0  0  0  0  0 15  0  0  0  0  0  0
   10.2846   -0.4749   -1.5237 C   0  0  0  0  0 15  0  0  0  0  0  0
   10.4846    1.0062   -1.7458 C   0  0  0  0  0 15  0  0  0  0  0  0
    9.5406    1.7916   -1.7792 O   0  0  0  0  0 15  0  0  0  0  0  0
   10.8536   -1.3083   -2.7075 C   0  0  0  0  0 15  0  0  0  0  0  0
   12.4016   -1.3023   -2.8462 C   0  0  0  0  0 15  0  0  0  0  0  0
   12.8766   -2.1196   -4.0600 C   0  0  0  0  0 15  0  0  0  0  0  0
   14.3676   -2.0942   -4.1316 N   0  0  0  0  0 15  0  0  0  0  0  0
   15.1026   -2.6942   -5.0616 C   0  0  0  0  0 15  0  0  0  0  0  0
   14.5986   -3.3829   -6.0459 N   0  0  0  0  0 15  0  0  0  0  0  0
   16.3916   -2.5913   -4.9880 N   0  0  0  0  0 15  0  0  0  0  0  0
    8.5426   -1.7522   -1.2005 H   0  0  0  0  0 15  0  0  0  0  0  0
   10.8056   -0.7450   -0.5862 H   0  0  0  0  0 15  0  0  0  0  0  0
   10.5116   -2.3588   -2.6087 H   0  0  0  0  0 15  0  0  0  0  0  0
   10.3856   -0.9520   -3.6499 H   0  0  0  0  0 15  0  0  0  0  0  0
   12.7726   -0.2597   -2.9395 H   0  0  0  0  0 15  0  0  0  0  0  0
   12.8536   -1.6985   -1.9127 H   0  0  0  0  0 15  0  0  0  0  0  0
   12.4976   -3.1625   -3.9743 H   0  0  0  0  0 15  0  0  0  0  0  0
   12.4276   -1.6971   -4.9850 H   0  0  0  0  0 15  0  0  0  0  0  0
   14.9186   -1.5930   -3.4268 H   0  0  0  0  0 15  0  0  0  0  0  0
   15.2316   -3.8139   -6.7213 H   0  0  0  0  0 15  0  0  0  0  0  0
   13.5766   -3.4239   -6.0481 H   0  0  0  0  0 15  0  0  0  0  0  0
   16.7676   -2.0493   -4.2086 H   0  0  0  0  0 15  0  0  0  0  0  0
   16.9406   -3.0619   -5.7110 H   0  0  0  0  0 15  0  0  0  0  0  0
   10.3467    1.4787   -0.5451 N   0  0  0  0  0 15  0  0  0  0  0  0
   11.5747    2.0689   -0.0211 C   0  0  0  0  0 15  0  0  0  0  0  0
   11.9897    1.3996    1.2672 C   0  0  0  0  0 15  0  0  0  0  0  0
   11.3467    0.4920    1.7574 O   0  0  0  0  0 15  0  0  0  0  0  0
   11.3977    3.6100    0.1908 C   0  0  0  0  0 15  0  0  0  0  0  0
   11.1187    4.2542   -1.0464 O   0  0  0  0  0 15  0  0  0  0  0  0
   12.6197    4.3685    0.7535 C   0  0  0  0  0 15  0  0  0  0  0  0
    9.8397    0.6698   -0.0404 H   0  0  0  0  0 15  0  0  0  0  0  0
   12.3837    1.9005   -0.7551 H   0  0  0  0  0 15  0  0  0  0  0  0
   10.5387    3.7739    0.8749 H   0  0  0  0  0 15  0  0  0  0  0  0
   10.9527    5.1778   -0.8366 H   0  0  0  0  0 15  0  0  0  0  0  0
   12.4267    5.4540    0.8511 H   0  0  0  0  0 15  0  0  0  0  0  0
   12.9037    4.0231    1.7620 H   0  0  0  0  0 15  0  0  0  0  0  0
   13.5097    4.2517    0.1055 H   0  0  0  0  0 15  0  0  0  0  0  0
   11.8248    0.2810    1.5507 N   0  0  0  0  0 15  0  0  0  0  0  0
   13.2408   -0.0730    1.5943 C   0  0  0  0  0 15  0  0  0  0  0  0
   13.4408   -1.5411    1.2982 C   0  0  0  0  0 15  0  0  0  0  0  0
   12.4968   -2.2909    1.0619 O   0  0  0  0  0 15  0  0  0  0  0  0
   13.8098    0.3069    2.9913 C   0  0  0  0  0 15  0  0  0  0  0  0
   15.3578    0.2540    3.1197 C   0  0  0  0  0 15  0  0  0  0  0  0
   15.8328    0.6085    4.5394 C   0  0  0  0  0 15  0  0  0  0  0  0
   17.3238    0.5602    4.5980 N   0  0  0  0  0 15  0  0  0  0  0  0
   18.0588    0.8072    5.6769 C   0  0  0  0  0 15  0  0  0  0  0  0
   17.5548    1.1191    6.8370 N   0  0  0  0  0 15  0  0  0  0  0  0
   19.3478    0.7356    5.5727 N   0  0  0  0  0 15  0  0  0  0  0  0
   11.4988    1.2380    1.7259 H   0  0  0  0  0 15  0  0  0  0  0  0
   13.7618    0.5005    0.8051 H   0  0  0  0  0 15  0  0  0  0  0  0
   13.4678    1.3282    3.2566 H   0  0  0  0  0 15  0  0  0  0  0  0
   13.3418   -0.3494    3.7558 H   0  0  0  0  0 15  0  0  0  0  0  0
   15.7288   -0.7579    2.8520 H   0  0  0  0  0 15  0  0  0  0  0  0
   15.8098    0.9446    2.3772 H   0  0  0  0  0 15  0  0  0  0  0  0
   15.4538    1.6181    4.8143 H   0  0  0  0  0 15  0  0  0  0  0  0
   15.3838   -0.1040    5.2650 H   0  0  0  0  0 15  0  0  0  0  0  0
   17.8748    0.3293    3.7646 H   0  0  0  0  0 15  0  0  0  0  0  0
   18.1878    1.2941    7.6189 H   0  0  0  0  0 15  0  0  0  0  0  0
   16.5328    1.1570    6.8530 H   0  0  0  0  0 15  0  0  0  0  0  0
   19.7238    0.4918    4.6551 H   0  0  0  0  0 15  0  0  0  0  0  0
   19.8968    0.9315    6.4127 H   0  0  0  0  0 15  0  0  0  0  0  0
   13.3029   -1.5760    0.0084 N   0  0  0  0  0 15  0  0  0  0  0  0
   14.7189   -1.5576   -0.3478 C   0  0  0  0  0 15  0  0  0  0  0  0
   14.9189   -1.0119   -1.7425 C   0  0  0  0  0 15  0  0  0  0  0  0
   13.9749   -0.6494   -2.4401 O   0  0  0  0  0 15  0  0  0  0  0  0
   15.2879   -2.9993   -0.2154 C   0  0  0  0  0 15  0  0  0  0  0  0
   16.8359   -3.1166   -0.2897 C   0  0  0  0  0 15  0  0  0  0  0  0
   17.3109   -4.5762   -0.1863 C   0  0  0  0  0 15  0  0  0  0  0  0
   18.8019   -4.6256   -0.2440 N   0  0  0  0  0 15  0  0  0  0  0  0
   19.5369   -5.7309   -0.1874 C   0  0  0  0  0 15  0  0  0  0  0  0
   19.0329   -6.9275   -0.0810 N   0  0  0  0  0 15  0  0  0  0  0  0
   20.8259   -5.6159   -0.2399 N   0  0  0  0  0 15  0  0  0  0  0  0
   12.9769   -1.9141    0.9206 H   0  0  0  0  0 15  0  0  0  0  0  0
   15.2399   -0.8796    0.3537 H   0  0  0  0  0 15  0  0  0  0  0  0
   14.9459   -3.4373    0.7445 H   0  0  0  0  0 15  0  0  0  0  0  0
   14.8199   -3.6386   -0.9941 H   0  0  0  0  0 15  0  0  0  0  0  0
   17.2069   -2.6778   -1.2401 H   0  0  0  0  0 15  0  0  0  0  0  0
   17.2879   -2.5048    0.5190 H   0  0  0  0  0 15  0  0  0  0  0  0
   16.9319   -5.0217    0.7605 H   0  0  0  0  0 15  0  0  0  0  0  0
   16.8619   -5.1675   -1.0136 H   0  0  0  0  0 15  0  0  0  0  0  0
   19.3529   -3.7648   -0.3272 H   0  0  0  0  0 15  0  0  0  0  0  0
   19.6659   -7.7279   -0.0440 H   0  0  0  0  0 15  0  0  0  0  0  0
   18.0109   -6.9498   -0.0465 H   0  0  0  0  0 15  0  0  0  0  0  0
   21.2019   -4.6700   -0.3213 H   0  0  0  0  0 15  0  0  0  0  0  0
   21.3749   -6.4771   -0.1924 H   0  0  0  0  0 15  0  0  0  0  0  0
   14.7810    0.2645   -1.5536 N   0  0  0  0  0 15  0  0  0  0  0  0
   16.0290    0.9930   -1.7602 C   0  0  0  0  0 15  0  0  0  0  0  0
   16.3500    1.8651   -0.5691 C   0  0  0  0  0 15  0  0  0  0  0  0
   15.6200    1.9144    0.4157 O   0  0  0  0  0 15  0  0  0  0  0  0
   14.2000    0.3696   -0.6491 H   0  0  0  0  0 15  0  0  0  0  0  0
   16.8620    0.2867   -1.9278 H   0  0  0  0  0 15  0  0  0  0  0  0
   15.9580    1.6250   -2.6646 H   0  0  0  0  0 15  0  0  0  0  0  0
   16.2591    1.4844    0.5294 N   0  0  0  0  0 15  0  0  0  0  0  0
   17.2061    1.6301    1.6339 C   0  0  0  0  0 15  0  0  0  0  0  0
   18.1761    0.4721    1.5925 C   0  0  0  0  0 15  0  0  0  0  0  0
   19.3611    0.6957    1.7767 O   0  0  0  0  0 15  0  0  0  0  0  0
   16.5011    1.6763    3.0165 C   0  0  0  0  0 15  0  0  0  0  0  0
   15.6141    2.9454    3.1603 C   0  0  0  0  0 15  0  0  0  0  0  0
   14.7491    2.9032    4.4485 C   0  0  0  0  0 15  0  0  0  0  0  0
   13.7881    4.1192    4.5275 C   0  0  0  0  0 15  0  0  0  0  0  0
   12.9251    4.0578    5.7297 N   0  0  0  0  0 15  0  0  0  0  0  0
   17.7651    2.5733    1.5028 H   0  0  0  0  0 15  0  0  0  0  0  0
   15.3021    1.2761    0.7317 H   0  0  0  0  0 15  0  0  0  0  0  0
   17.2601    1.6829    3.8175 H   0  0  0  0  0 15  0  0  0  0  0  0
   15.8901    0.7680    3.1353 H   0  0  0  0  0 15  0  0  0  0  0  0
   14.9421    3.0361    2.2918 H   0  0  0  0  0 15  0  0  0  0  0  0
   16.2541    3.8451    3.1773 H   0  0  0  0  0 15  0  0  0  0  0  0
   15.4081    2.8938    5.3324 H   0  0  0  0  0 15  0  0  0  0  0  0
   14.1471    1.9807    4.4567 H   0  0  0  0  0 15  0  0  0  0  0  0
   13.1521    4.1313    3.6277 H   0  0  0  0  0 15  0  0  0  0  0  0
   14.3771    5.0533    4.5367 H   0  0  0  0  0 15  0  0  0  0  0  0
   12.3231    3.1635    5.7468 H   0  0  0  0  0 15  0  0  0  0  0  0
   12.2401    4.8946    5.7616 H   0  0  0  0  0 15  0  0  0  0  0  0
   13.5081    4.0890    6.6364 H   0  0  0  0  0 15  0  0  0  0  0  0
   17.7372   -0.7783    1.3704 N   0  0  0  0  0 15  0  0  0  0  0  0
   18.9862   -1.5319    1.3121 C   0  0  0  0  0 15  0  0  0  0  0  0
   19.2992   -1.9533   -0.1031 C   0  0  0  0  0 15  0  0  0  0  0  0
   20.5052   -2.7001   -0.2838 O   0  0  0  0  0 15  0  0  0  0  0  0
   18.9612   -2.7659    2.3027 C   0  0  0  0  0 15  0  0  0  0  0  0
   18.5692   -2.4158    3.7729 C   0  0  0  0  0 15  0  0  0  0  0  0
   20.3132   -3.5455    2.3344 C   0  0  0  0  0 15  0  0  0  0  0  0
   18.2202   -3.6144    4.6810 C   0  0  0  0  0 15  0  0  0  0  0  0
   17.1502   -0.5751    0.4876 H   0  0  0  0  0 15  0  0  0  0  0  0
   19.8012   -0.8531    1.6246 H   0  0  0  0  0 15  0  0  0  0  0  0
   18.1832   -3.4633    1.9203 H   0  0  0  0  0 15  0  0  0  0  0  0
   19.3572   -1.7967    4.2433 H   0  0  0  0  0 15  0  0  0  0  0  0
   17.6722   -1.7681    3.7700 H   0  0  0  0  0 15  0  0  0  0  0  0
   20.2692   -4.4363    2.9849 H   0  0  0  0  0 15  0  0  0  0  0  0
   20.6122   -3.9394    1.3461 H   0  0  0  0  0 15  0  0  0  0  0  0
   21.1452   -2.9181    2.7036 H   0  0  0  0  0 15  0  0  0  0  0  0
   17.8842   -3.2714    5.6803 H   0  0  0  0  0 15  0  0  0  0  0  0
   17.4042   -4.2248    4.2576 H   0  0  0  0  0 15  0  0  0  0  0  0
   19.0832   -4.2834    4.8491 H   0  0  0  0  0 15  0  0  0  0  0  0
   19.2153   -1.2150   -1.0038 N   0  0  0  0  0 15  0  0  0  0  0  0
   20.4613   -1.0446   -1.7453 C   0  0  0  0  0 15  0  0  0  0  0  0
   20.8163    0.4174   -1.8782 C   0  0  0  0  0 15  0  0  0  0  0  0
   20.1093    1.3056   -1.4023 O   0  0  0  0  0 15  0  0  0  0  0  0
   20.3033   -1.6767   -3.1563 C   0  0  0  0  0 15  0  0  0  0  0  0
   20.1323   -3.1986   -3.1610 C   0  0  0  0  0 15  0  0  0  0  0  0
   18.9023   -3.8891   -3.2260 C   0  0  0  0  0 15  0  0  0  0  0  0
   21.1003   -4.1694   -3.0111 C   0  0  0  0  0 15  0  0  0  0  0  0
   19.0823   -5.2828   -3.1271 N   0  0  0  0  0 15  0  0  0  0  0  0
   20.4533   -5.4307   -2.9913 C   0  0  0  0  0 15  0  0  0  0  0  0
   22.5083   -4.0797   -2.8542 C   0  0  0  0  0 15  0  0  0  0  0  0
   21.2113   -6.6126   -2.8307 C   0  0  0  0  0 15  0  0  0  0  0  0
   23.2373   -5.2580   -2.7072 C   0  0  0  0  0 15  0  0  0  0  0  0
   22.5993   -6.5084   -2.6941 C   0  0  0  0  0 15  0  0  0  0  0  0
   18.6983   -0.4366   -0.6488 H   0  0  0  0  0 15  0  0  0  0  0  0
   21.2823   -1.5387   -1.1929 H   0  0  0  0  0 15  0  0  0  0  0  0
   19.4533   -1.2082   -3.6913 H   0  0  0  0  0 15  0  0  0  0  0  0
   21.1853   -1.4382   -3.7828 H   0  0  0  0  0 15  0  0  0  0  0  0
   17.9403   -3.3985   -3.2985 H   0  0  0  0  0 15  0  0  0  0  0  0
   18.3643   -6.0128   -3.1111 H   0  0  0  0  0 15  0  0  0  0  0  0
   23.0063   -3.1209   -2.8524 H   0  0  0  0  0 15  0  0  0  0  0  0
   20.7243   -7.5730   -2.8200 H   0  0  0  0  0 15  0  0  0  0  0  0
   24.3103   -5.2068   -2.5958 H   0  0  0  0  0 15  0  0  0  0  0  0
   23.1903   -7.4048   -2.5817 H   0  0  0  0  0 15  0  0  0  0  0  0
   20.6934    1.1989   -1.0230 N   0  0  0  0  0 15  0  0  0  0  0  0
   22.1094    1.4146   -0.7390 C   0  0  0  0  0 15  0  0  0  0  0  0
   22.3094    1.8972    0.6788 C   0  0  0  0  0 15  0  0  0  0  0  0
   21.3654    2.0702    1.4457 O   0  0  0  0  0 15  0  0  0  0  0  0
   22.6784    2.4308   -1.7701 C   0  0  0  0  0 15  0  0  0  0  0  0
   24.2264    2.5684   -1.7889 C   0  0  0  0  0 15  0  0  0  0  0  0
   24.7014    3.6171   -2.8095 C   0  0  0  0  0 15  0  0  0  0  0  0
   26.1924    3.6920   -2.7973 N   0  0  0  0  0 15  0  0  0  0  0  0
   26.9274    4.5002   -3.5535 C   0  0  0  0  0 15  0  0  0  0  0  0
   26.4234    5.3459   -4.4066 N   0  0  0  0  0 15  0  0  0  0  0  0
   28.2164    4.4461   -3.4391 N   0  0  0  0  0 15  0  0  0  0  0  0
   20.3674    0.8688   -1.9382 H   0  0  0  0  0 15  0  0  0  0  0  0
   22.6304    0.4440   -0.8376 H   0  0  0  0  0 15  0  0  0  0  0  0
   22.3364    2.1464   -2.7861 H   0  0  0  0  0 15  0  0  0  0  0  0
   22.2104    3.4217   -1.5874 H   0  0  0  0  0 15  0  0  0  0  0  0
   24.5974    2.8461   -0.7797 H   0  0  0  0  0 15  0  0  0  0  0  0
   24.6784    1.5793   -2.0123 H   0  0  0  0  0 15  0  0  0  0  0  0
   24.3224    3.3468   -3.8204 H   0  0  0  0  0 15  0  0  0  0  0  0
   24.2524    4.6026   -2.5587 H   0  0  0  0  0 15  0  0  0  0  0  0
   26.7434    3.0879   -2.1784 H   0  0  0  0  0 15  0  0  0  0  0  0
   27.0564    5.9336   -4.9512 H   0  0  0  0  0 15  0  0  0  0  0  0
   25.4014    5.3407   -4.4474 H   0  0  0  0  0 15  0  0  0  0  0  0
   28.5924    3.7758   -2.7668 H   0  0  0  0  0 15  0  0  0  0  0  0
   28.7654    5.0736   -4.0310 H   0  0  0  0  0 15  0  0  0  0  0  0
   22.1715    0.8000    1.3578 N   0  0  0  0  0 15  0  0  0  0  0  0
   23.4195    0.3766    1.9856 C   0  0  0  0  0 15  0  0  0  0  0  0
   23.7405   -1.0581    1.6379 C   0  0  0  0  0 15  0  0  0  0  0  0
   23.0105   -1.7310    0.9172 O   0  0  0  0  0 15  0  0  0  0  0  0
   21.5905    0.1363    0.7345 H   0  0  0  0  0 15  0  0  0  0  0  0
   24.2525    1.0244    1.6581 H   0  0  0  0  0 15  0  0  0  0  0  0
   23.3485    0.4770    3.0843 H   0  0  0  0  0 15  0  0  0  0  0  0
   23.6496   -1.4758    0.5530 N   0  0  0  0  0 15  0  0  0  0  0  0
   24.8776   -2.0688    0.0321 C   0  0  0  0  0 15  0  0  0  0  0  0
   25.2926   -1.4063   -1.2598 C   0  0  0  0  0 15  0  0  0  0  0  0
   24.6496   -0.5013   -1.7548 O   0  0  0  0  0 15  0  0  0  0  0  0
   24.7006   -3.6109   -0.1717 C   0  0  0  0  0 15  0  0  0  0  0  0
   24.4216   -4.2486    1.0690 O   0  0  0  0  0 15  0  0  0  0  0  0
   25.9226   -4.3724   -0.7303 C   0  0  0  0  0 15  0  0  0  0  0  0
   23.1426   -0.6696    0.0439 H   0  0  0  0  0 15  0  0  0  0  0  0
   25.6866   -1.8965    0.7652 H   0  0  0  0  0 15  0  0  0  0  0  0
   23.8416   -3.7785   -0.8549 H   0  0  0  0  0 15  0  0  0  0  0  0
   24.2556   -5.1733    0.8641 H   0  0  0  0  0 15  0  0  0  0  0  0
   25.7296   -5.4584   -0.8222 H   0  0  0  0  0 15  0  0  0  0  0  0
   26.2066   -4.0323   -1.7406 H   0  0  0  0  0 15  0  0  0  0  0  0
   26.8126   -4.2522   -0.0830 H   0  0  0  0  0 15  0  0  0  0  0  0
   25.1277   -0.2892   -1.5492 N   0  0  0  0  0 15  0  0  0  0  0  0
   26.3577    0.3260   -2.0401 C   0  0  0  0  0 15  0  0  0  0  0  0
   26.7657    1.4896   -1.1665 C   0  0  0  0  0 15  0  0  0  0  0  0
   26.1087    1.8279   -0.1822 O   0  0  0  0  0 15  0  0  0  0  0  0
   26.1707    0.8561   -3.4916 C   0  0  0  0  0 15  0  0  0  0  0  0
   25.8347   -0.1807   -4.5664 C   0  0  0  0  0 15  0  0  0  0  0  0
   26.8317   -1.0051   -5.1009 C   0  0  0  0  0 15  0  0  0  0  0  0
   24.5167   -0.3190   -5.0129 C   0  0  0  0  0 15  0  0  0  0  0  0
   26.5107   -1.9539   -6.0672 C   0  0  0  0  0 15  0  0  0  0  0  0
   24.1977   -1.2712   -5.9773 C   0  0  0  0  0 15  0  0  0  0  0  0
   25.1957   -2.0871   -6.5033 C   0  0  0  0  0 15  0  0  0  0  0  0
   24.8837   -3.0232   -7.4489 O   0  0  0  0  0 15  0  0  0  0  0  0
   24.6157    0.0765   -0.6717 H   0  0  0  0  0 15  0  0  0  0  0  0
   27.1697   -0.4233   -2.0099 H   0  0  0  0  0 15  0  0  0  0  0  0
   25.3997    1.6557   -3.4946 H   0  0  0  0  0 15  0  0  0  0  0  0
   27.0887    1.3859   -3.8151 H   0  0  0  0  0 15  0  0  0  0  0  0
   27.8547   -0.9091   -4.7640 H   0  0  0  0  0 15  0  0  0  0  0  0
   23.7337    0.3061   -4.5998 H   0  0  0  0  0 15  0  0  0  0  0  0
   27.2777   -2.5911   -6.4769 H   0  0  0  0  0 15  0  0  0  0  0  0
   23.1747   -1.3680   -6.3084 H   0  0  0  0  0 15  0  0  0  0  0  0
   23.9427   -2.9716   -7.6265 H   0  0  0  0  0 15  0  0  0  0  0  0
   26.6058    1.5759   -0.0167 N   0  0  0  0  0 15  0  0  0  0  0  0
   27.8538    1.9091    0.6633 C   0  0  0  0  0 15  0  0  0  0  0  0
   28.1748    0.8925    1.7338 C   0  0  0  0  0 15  0  0  0  0  0  0
   27.4448   -0.0678    1.9578 O   0  0  0  0  0 15  0  0  0  0  0  0
   26.0248    0.7046    0.2480 H   0  0  0  0  0 15  0  0  0  0  0  0
   28.6868    1.9480   -0.0616 H   0  0  0  0  0 15  0  0  0  0  0  0
   27.7828    2.9116    1.1239 H   0  0  0  0  0 15  0  0  0  0  0  0
   28.0839   -0.2563    1.5550 N   0  0  0  0  0 15  0  0  0  0  0  0
   29.0309   -1.3171    1.8953 C   0  0  0  0  0 15  0  0  0  0  0  0
   30.0009   -1.4828    0.7485 C   0  0  0  0  0 15  0  0  0  0  0  0
   31.1859   -1.6242    1.0013 O   0  0  0  0  0 15  0  0  0  0  0  0
   28.3259   -2.6693    2.1873 C   0  0  0  0  0 15  0  0  0  0  0  0
   27.4389   -2.5845    3.4616 C   0  0  0  0  0 15  0  0  0  0  0  0
   26.5739   -3.8596    3.6498 C   0  0  0  0  0 15  0  0  0  0  0  0
   25.6129   -3.7206    4.8604 C   0  0  0  0  0 15  0  0  0  0  0  0
   24.7499   -4.9144    5.0143 N   0  0  0  0  0 15  0  0  0  0  0  0
   29.5899   -1.0200    2.8000 H   0  0  0  0  0 15  0  0  0  0  0  0
   27.1269   -0.4924    1.3861 H   0  0  0  0  0 15  0  0  0  0  0  0
   29.0849   -3.4563    2.3366 H   0  0  0  0  0 15  0  0  0  0  0  0
   27.7149   -2.9482    1.3147 H   0  0  0  0  0 15  0  0  0  0  0  0
   26.7669   -1.7137    3.3961 H   0  0  0  0  0 15  0  0  0  0  0  0
   28.0789   -2.4408    4.3500 H   0  0  0  0  0 15  0  0  0  0  0  0
   27.2329   -4.7310    3.7982 H   0  0  0  0  0 15  0  0  0  0  0  0
   25.9719   -4.0321    2.7435 H   0  0  0  0  0 15  0  0  0  0  0  0
   24.9769   -2.8330    4.7119 H   0  0  0  0  0 15  0  0  0  0  0  0
   26.2019   -3.5631    5.7812 H   0  0  0  0  0 15  0  0  0  0  0  0
   24.1479   -5.0907    4.1374 H   0  0  0  0  0 15  0  0  0  0  0  0
   24.0649   -4.7967    5.8434 H   0  0  0  0  0 15  0  0  0  0  0  0
   25.3329   -5.8010    5.2067 H   0  0  0  0  0 15  0  0  0  0  0  0
   29.5620   -1.4872   -0.5215 N   0  0  0  0  0 15  0  0  0  0  0  0
   30.7920   -1.6061   -1.2995 C   0  0  0  0  0 15  0  0  0  0  0  0
   31.2000   -0.2687   -1.8728 C   0  0  0  0  0 15  0  0  0  0  0  0
   30.5430    0.7532   -1.6755 O   0  0  0  0  0 15  0  0  0  0  0  0
   30.6050   -2.6001   -2.4826 C   0  0  0  0  0 15  0  0  0  0  0  0
   30.2690   -4.0487   -2.1196 C   0  0  0  0  0 15  0  0  0  0  0  0
   31.2660   -4.9230   -1.6713 C   0  0  0  0  0 15  0  0  0  0  0  0
   28.9510   -4.5047   -2.2222 C   0  0  0  0  0 15  0  0  0  0  0  0
   30.9450   -6.2336   -1.3305 C   0  0  0  0  0 15  0  0  0  0  0  0
   28.6320   -5.8154   -1.8775 C   0  0  0  0  0 15  0  0  0  0  0  0
   29.6300   -6.6781   -1.4323 C   0  0  0  0  0 15  0  0  0  0  0  0
   29.3180   -7.9645   -1.0922 O   0  0  0  0  0 15  0  0  0  0  0  0
   29.0500   -0.5441   -0.4011 H   0  0  0  0  0 15  0  0  0  0  0  0
   31.6040   -1.9534   -0.6350 H   0  0  0  0  0 15  0  0  0  0  0  0
   29.8340   -2.2042   -3.1773 H   0  0  0  0  0 15  0  0  0  0  0  0
   31.5230   -2.6165   -3.1031 H   0  0  0  0  0 15  0  0  0  0  0  0
   32.2890   -4.5831   -1.5867 H   0  0  0  0  0 15  0  0  0  0  0  0
   28.1680   -3.8350   -2.5582 H   0  0  0  0  0 15  0  0  0  0  0  0
   31.7120   -6.9065   -0.9823 H   0  0  0  0  0 15  0  0  0  0  0  0
   27.6090   -6.1507   -1.9586 H   0  0  0  0  0 15  0  0  0  0  0  0
   28.3770   -8.0927   -1.2254 H   0  0  0  0  0 15  0  0  0  0  0  0
   31.0401    0.7711   -1.3745 N   0  0  0  0  0 15  0  0  0  0  0  0
   32.4561    1.0717   -1.1827 C   0  0  0  0  0 15  0  0  0  0  0  0
   32.6561    2.0149   -0.0193 C   0  0  0  0  0 15  0  0  0  0  0  0
   31.7121    2.4424    0.6404 O   0  0  0  0  0 15  0  0  0  0  0  0
   33.0251    1.6685   -2.5016 C   0  0  0  0  0 15  0  0  0  0  0  0
   34.5731    1.7911   -2.5669 C   0  0  0  0  0 15  0  0  0  0  0  0
   35.0481    2.4221   -3.8872 C   0  0  0  0  0 15  0  0  0  0  0  0
   36.5391    2.4966   -3.9016 N   0  0  0  0  0 15  0  0  0  0  0  0
   37.2741    2.9933   -4.8907 C   0  0  0  0  0 15  0  0  0  0  0  0
   36.7701    3.4917   -5.9837 N   0  0  0  0  0 15  0  0  0  0  0  0
   38.5631    2.9821   -4.7647 N   0  0  0  0  0 15  0  0  0  0  0  0
   30.7141    0.1448   -2.1191 H   0  0  0  0  0 15  0  0  0  0  0  0
   32.9771    0.1269   -0.9395 H   0  0  0  0  0 15  0  0  0  0  0  0
   32.6831    1.0502   -3.3565 H   0  0  0  0  0 15  0  0  0  0  0  0
   32.5571    2.6614   -2.6730 H   0  0  0  0  0 15  0  0  0  0  0  0
   34.9441    2.4008   -1.7160 H   0  0  0  0  0 15  0  0  0  0  0  0
   35.0251    0.7858   -2.4343 H   0  0  0  0  0 15  0  0  0  0  0  0
   34.6691    1.8188   -4.7422 H   0  0  0  0  0 15  0  0  0  0  0  0
   34.5991    3.4335   -3.9928 H   0  0  0  0  0 15  0  0  0  0  0  0
   37.0901    2.1438   -3.1120 H   0  0  0  0  0 15  0  0  0  0  0  0
   37.4031    3.8548   -6.6979 H   0  0  0  0  0 15  0  0  0  0  0  0
   35.7481    3.4727   -6.0202 H   0  0  0  0  0 15  0  0  0  0  0  0
   38.9391    2.5857   -3.9020 H   0  0  0  0  0 15  0  0  0  0  0  0
   39.1121    3.3661   -5.5371 H   0  0  0  0  0 15  0  0  0  0  0  0
   32.5182    1.2203    0.9973 N   0  0  0  0  0 15  0  0  0  0  0  0
   33.9292    1.0397    1.5507 C   0  0  0  0  0 15  0  0  0  0  0  0
   34.2802   -0.3982    1.9212 C   0  0  0  0  0 15  0  0  0  0  0  0
   33.4052   -1.2825    1.7430 O   0  0  0  0  0 15  0  0  0  0  0  0
   34.0002    1.8811    2.8178 C   0  0  0  0  0 15  0  0  0  0  0  0
   32.5592    1.7436    3.3358 C   0  0  0  0  0 15  0  0  0  0  0  0
   31.7062    1.8485    2.0671 C   0  0  0  0  0 15  0  0  0  0  0  0
   34.6572    1.3594    0.8189 H   0  0  0  0  0 15  0  0  0  0  0  0
   34.6782    1.3959    3.5397 H   0  0  0  0  0 15  0  0  0  0  0  0
   34.1902    2.9275    2.5479 H   0  0  0  0  0 15  0  0  0  0  0  0
   32.2912    0.7243    3.6549 H   0  0  0  0  0 15  0  0  0  0  0  0
   32.4042    2.5677    4.0448 H   0  0  0  0  0 15  0  0  0  0  0  0
   30.7682    1.2824    2.2006 H   0  0  0  0  0 15  0  0  0  0  0  0
   31.5512    2.9101    1.8211 H   0  0  0  0  0 15  0  0  0  0  0  0
   33.9963   -1.1934    1.0293 N   0  0  0  0  0 15  0  0  0  0  0  0
   35.4123   -1.4107    0.7464 C   0  0  0  0  0 15  0  0  0  0  0  0
   35.6123   -1.9008   -0.6688 C   0  0  0  0  0 15  0  0  0  0  0  0
   34.6683   -2.0778   -1.4347 O   0  0  0  0  0 15  0  0  0  0  0  0
   35.9813   -2.4214    1.7829 C   0  0  0  0  0 15  0  0  0  0  0  0
   37.5293   -2.5589    1.8025 C   0  0  0  0  0 15  0  0  0  0  0  0
   38.0043   -3.6021    2.8286 C   0  0  0  0  0 15  0  0  0  0  0  0
   39.4953   -3.6771    2.8168 N   0  0  0  0  0 15  0  0  0  0  0  0
   40.2303   -4.4813    3.5773 C   0  0  0  0  0 15  0  0  0  0  0  0
   39.7263   -5.3225    4.4349 N   0  0  0  0  0 15  0  0  0  0  0  0
   41.5193   -4.4278    3.4627 N   0  0  0  0  0 15  0  0  0  0  0  0
   33.6703   -0.8585    1.9428 H   0  0  0  0  0 15  0  0  0  0  0  0
   35.9333   -0.4395    0.8399 H   0  0  0  0  0 15  0  0  0  0  0  0
   35.6393   -2.1316    2.7975 H   0  0  0  0  0 15  0  0  0  0  0  0
   35.5133   -3.4132    1.6056 H   0  0  0  0  0 15  0  0  0  0  0  0
   37.9003   -2.8420    0.7948 H   0  0  0  0  0 15  0  0  0  0  0  0
   37.9813   -1.5686    2.0206 H   0  0  0  0  0 15  0  0  0  0  0  0
   37.6253   -3.3265    3.8381 H   0  0  0  0  0 15  0  0  0  0  0  0
   37.5553   -4.5890    2.5831 H   0  0  0  0  0 15  0  0  0  0  0  0
   40.0463   -3.0763    2.1948 H   0  0  0  0  0 15  0  0  0  0  0  0
   40.3593   -5.9073    4.9826 H   0  0  0  0  0 15  0  0  0  0  0  0
   38.7043   -5.3171    4.4756 H   0  0  0  0  0 15  0  0  0  0  0  0
   41.8953   -3.7611    2.7868 H   0  0  0  0  0 15  0  0  0  0  0  0
   42.0683   -5.0522    4.0579 H   0  0  0  0  0 15  0  0  0  0  0  0
   35.4744   -0.8072   -1.3536 N   0  0  0  0  0 15  0  0  0  0  0  0
   36.4214   -0.2160   -2.2979 C   0  0  0  0  0 15  0  0  0  0  0  0
   37.3914    0.6503   -1.5284 C   0  0  0  0  0 15  0  0  0  0  0  0
   38.5764    0.5952   -1.8128 O   0  0  0  0  0 15  0  0  0  0  0  0
   35.7164    0.6289   -3.3932 C   0  0  0  0  0 15  0  0  0  0  0  0
   34.8294   -0.2579   -4.3123 C   0  0  0  0  0 15  0  0  0  0  0  0
   33.9644    0.5951   -5.2786 C   0  0  0  0  0 15  0  0  0  0  0  0
   33.0034   -0.2921   -6.1140 C   0  0  0  0  0 15  0  0  0  0  0  0
   32.1404    0.5209   -7.0017 N   0  0  0  0  0 15  0  0  0  0  0  0
   36.9804   -1.0267   -2.7975 H   0  0  0  0  0 15  0  0  0  0  0  0
   34.5174   -0.5178   -1.3768 H   0  0  0  0  0 15  0  0  0  0  0  0
   36.4754    1.1339   -4.0149 H   0  0  0  0  0 15  0  0  0  0  0  0
   35.1054    1.4048   -2.9063 H   0  0  0  0  0 15  0  0  0  0  0  0
   34.1574   -0.8811   -3.7006 H   0  0  0  0  0 15  0  0  0  0  0  0
   35.4694   -0.9408   -4.8985 H   0  0  0  0  0 15  0  0  0  0  0  0
   34.6234    1.1652   -5.9541 H   0  0  0  0  0 15  0  0  0  0  0  0
   33.3624    1.3115   -4.6974 H   0  0  0  0  0 15  0  0  0  0  0  0
   32.3674   -0.8745   -5.4280 H   0  0  0  0  0 15  0  0  0  0  0  0
   33.5924   -1.0064   -6.7160 H   0  0  0  0  0 15  0  0  0  0  0  0
   31.5384    1.2213   -6.4453 H   0  0  0  0  0 15  0  0  0  0  0  0
   31.4554   -0.1039   -7.5593 H   0  0  0  0  0 15  0  0  0  0  0  0
   32.7234    1.0743   -7.7206 H   0  0  0  0  0 15  0  0  0  0  0  0
   36.9525    1.4729   -0.5608 N   0  0  0  0  0 15  0  0  0  0  0  0
   37.8995    2.3006    0.1849 C   0  0  0  0  0 15  0  0  0  0  0  0
   38.8695    1.3928    0.9050 C   0  0  0  0  0 15  0  0  0  0  0  0
   40.0545    1.6824    0.9000 O   0  0  0  0  0 15  0  0  0  0  0  0
   37.1945    3.2332    1.2067 C   0  0  0  0  0 15  0  0  0  0  0  0
   36.3075    4.2919    0.4923 C   0  0  0  0  0 15  0  0  0  0  0  0
   35.4425    5.0959    1.4996 C   0  0  0  0  0 15  0  0  0  0  0  0
   34.4815    6.0723    0.7704 C   0  0  0  0  0 15  0  0  0  0  0  0
   33.6185    6.8058    1.7248 N   0  0  0  0  0 15  0  0  0  0  0  0
   38.4585    2.9330   -0.5270 H   0  0  0  0  0 15  0  0  0  0  0  0
   35.9955    1.4457   -0.2717 H   0  0  0  0  0 15  0  0  0  0  0  0
   37.9535    3.7581    1.8117 H   0  0  0  0  0 15  0  0  0  0  0  0
   36.5835    2.6193    1.8866 H   0  0  0  0  0 15  0  0  0  0  0  0
   35.6355    3.7972   -0.2273 H   0  0  0  0  0 15  0  0  0  0  0  0
   36.9475    4.9874   -0.0788 H   0  0  0  0  0 15  0  0  0  0  0  0
   36.1015    5.6625    2.1781 H   0  0  0  0  0 15  0  0  0  0  0  0
   34.8405    4.3995    2.1046 H   0  0  0  0  0 15  0  0  0  0  0  0
   33.8455    5.4974    0.0781 H   0  0  0  0  0 15  0  0  0  0  0  0
   35.0705    6.7888    0.1711 H   0  0  0  0  0 15  0  0  0  0  0  0
   33.0165    6.1367    2.3183 H   0  0  0  0  0 15  0  0  0  0  0  0
   32.9335    7.4632    1.2060 H   0  0  0  0  0 15  0  0  0  0  0  0
   34.2015    7.4182    2.3943 H   0  0  0  0  0 15  0  0  0  0  0  0
   38.4306    0.2974    1.5477 N   0  0  0  0  0 15  0  0  0  0  0  0
   39.3776   -0.5803    2.2339 C   0  0  0  0  0 15  0  0  0  0  0  0
   40.3476   -1.1324    1.2152 C   0  0  0  0  0 15  0  0  0  0  0  0
   41.5326   -1.1776    1.5013 O   0  0  0  0  0 15  0  0  0  0  0  0
   38.6726   -1.7480    2.9755 C   0  0  0  0  0 15  0  0  0  0  0  0
   37.7856   -1.2276    4.1419 C   0  0  0  0  0 15  0  0  0  0  0  0
   36.9206   -2.3589    4.7595 C   0  0  0  0  0 15  0  0  0  0  0  0
   35.9596   -1.8097    5.8473 C   0  0  0  0  0 15  0  0  0  0  0  0
   35.0966   -2.8766    6.4046 N   0  0  0  0  0 15  0  0  0  0  0  0
   39.9366    0.0115    2.9800 H   0  0  0  0  0 15  0  0  0  0  0  0
   37.4736    0.0174    1.4709 H   0  0  0  0  0 15  0  0  0  0  0  0
   39.4316   -2.4348    3.3879 H   0  0  0  0  0 15  0  0  0  0  0  0
   38.0616   -2.3115    2.2533 H   0  0  0  0  0 15  0  0  0  0  0  0
   37.1136   -0.4333    3.7792 H   0  0  0  0  0 15  0  0  0  0  0  0
   38.4256   -0.7856    4.9258 H   0  0  0  0  0 15  0  0  0  0  0  0
   37.5796   -3.1252    5.2001 H   0  0  0  0  0 15  0  0  0  0  0  0
   36.3186   -2.8343    3.9689 H   0  0  0  0  0 15  0  0  0  0  0  0
   35.3236   -1.0283    5.4010 H   0  0  0  0  0 15  0  0  0  0  0  0
   36.5486   -1.3435    6.6568 H   0  0  0  0  0 15  0  0  0  0  0  0
   34.4946   -3.3454    5.6429 H   0  0  0  0  0 15  0  0  0  0  0  0
   34.4116   -2.4794    7.1419 H   0  0  0  0  0 15  0  0  0  0  0  0
   35.6796   -3.6420    6.8919 H   0  0  0  0  0 15  0  0  0  0  0  0
   39.9476   -1.6067    0.1639 O   0  0  0  0  0 15  0  0  0  0  0  0
   40.6386   -1.8893   -0.4272 H   0  0  0  0  0 15  0  0  0  0  0  0
M  END
$$$$
