drugbank_target|Q693P7 Alpha-7 nicotinic cholinergic receptor subunit (DB00193; DB00202; DB01043; DB01221; DB01520; DB06090)
 OpenBabel12092120323D

442444  0  0  0  0  0  0  0  0999 V2000
   -0.9080    1.9825   -0.1171 H   0  0  0  0  0 15  0  0  0  0  0  0
    0.0000    1.5760    0.0000 N   0  0  0  0  0 15  0  0  0  0  0  0
    1.2490    1.8975    0.6840 C   0  0  0  0  0 15  0  0  0  0  0  0
    1.5620    0.8750    1.7494 C   0  0  0  0  0 15  0  0  0  0  0  0
    2.7680    1.0867    2.4880 O   0  0  0  0  0 15  0  0  0  0  0  0
    1.2240    3.3683    1.2678 C   0  0  0  0  0 15  0  0  0  0  0  0
    0.8320    4.4737    0.2373 C   0  0  0  0  0 15  0  0  0  0  0  0
    2.5760    3.7809    1.9301 C   0  0  0  0  0 15  0  0  0  0  0  0
    0.4830    5.8553    0.8311 C   0  0  0  0  0 15  0  0  0  0  0  0
   -0.5870    0.7080    0.2593 H   0  0  0  0  0 15  0  0  0  0  0  0
    2.0640    1.8340   -0.0605 H   0  0  0  0  0 15  0  0  0  0  0  0
    0.4460    3.3801    2.0631 H   0  0  0  0  0 15  0  0  0  0  0  0
    1.6200    4.5770   -0.5333 H   0  0  0  0  0 15  0  0  0  0  0  0
   -0.0650    4.1513   -0.3245 H   0  0  0  0  0 15  0  0  0  0  0  0
    2.5320    4.7864    2.3834 H   0  0  0  0  0 15  0  0  0  0  0  0
    2.8750    3.1160    2.7606 H   0  0  0  0  0 15  0  0  0  0  0  0
    3.4080    3.7920    1.2022 H   0  0  0  0  0 15  0  0  0  0  0  0
    0.1470    6.5549    0.0393 H   0  0  0  0  0 15  0  0  0  0  0  0
   -0.3330    5.7886    1.5709 H   0  0  0  0  0 15  0  0  0  0  0  0
    1.3460    6.3319    1.3297 H   0  0  0  0  0 15  0  0  0  0  0  0
    1.4781   -0.2728    1.5522 N   0  0  0  0  0 15  0  0  0  0  0  0
    2.7061   -1.0226    1.7987 C   0  0  0  0  0 15  0  0  0  0  0  0
    3.1211   -1.7992    0.5721 C   0  0  0  0  0 15  0  0  0  0  0  0
    2.4781   -1.7664   -0.4588 O   0  0  0  0  0 15  0  0  0  0  0  0
    2.5291   -1.9809    3.0239 C   0  0  0  0  0 15  0  0  0  0  0  0
    2.2501   -1.2357    4.2031 O   0  0  0  0  0 15  0  0  0  0  0  0
    3.7511   -2.8488    3.3964 C   0  0  0  0  0 15  0  0  0  0  0  0
    0.9711   -0.3021    0.5992 H   0  0  0  0  0 15  0  0  0  0  0  0
    3.5151   -0.3035    2.0224 H   0  0  0  0  0 15  0  0  0  0  0  0
    1.6701   -2.6546    2.8215 H   0  0  0  0  0 15  0  0  0  0  0  0
    2.0841   -1.8817    4.8958 H   0  0  0  0  0 15  0  0  0  0  0  0
    3.5581   -3.4793    4.2854 H   0  0  0  0  0 15  0  0  0  0  0  0
    4.0351   -3.5466    2.5905 H   0  0  0  0  0 15  0  0  0  0  0  0
    4.6411   -2.2300    3.6215 H   0  0  0  0  0 15  0  0  0  0  0  0
    2.9562   -1.4816   -0.5373 N   0  0  0  0  0 15  0  0  0  0  0  0
    4.2022   -1.5604   -1.2954 C   0  0  0  0  0 15  0  0  0  0  0  0
    4.5352   -0.2304   -1.9283 C   0  0  0  0  0 15  0  0  0  0  0  0
    3.8102    0.7630   -1.7891 O   0  0  0  0  0 15  0  0  0  0  0  0
    4.0932   -2.6932   -2.3903 C   0  0  0  0  0 15  0  0  0  0  0  0
    3.9462   -4.1200   -1.8048 C   0  0  0  0  0 15  0  0  0  0  0  0
    5.2652   -2.7841   -3.4085 C   0  0  0  0  0 15  0  0  0  0  0  0
    2.3842   -0.5680   -0.4696 H   0  0  0  0  0 15  0  0  0  0  0  0
    5.0262   -1.8030   -0.5993 H   0  0  0  0  0 15  0  0  0  0  0  0
    3.1762   -2.4876   -2.9841 H   0  0  0  0  0 15  0  0  0  0  0  0
    4.8482   -4.4398   -1.2521 H   0  0  0  0  0 15  0  0  0  0  0  0
    3.0912   -4.1934   -1.1106 H   0  0  0  0  0 15  0  0  0  0  0  0
    3.7622   -4.8708   -2.5973 H   0  0  0  0  0 15  0  0  0  0  0  0
    6.2382   -2.9701   -2.9142 H   0  0  0  0  0 15  0  0  0  0  0  0
    5.1142   -3.5942   -4.1486 H   0  0  0  0  0 15  0  0  0  0  0  0
    5.3752   -1.8627   -4.0094 H   0  0  0  0  0 15  0  0  0  0  0  0
    4.4343    0.7856   -1.3662 N   0  0  0  0  0 15  0  0  0  0  0  0
    5.3643    1.9126   -1.3395 C   0  0  0  0  0 15  0  0  0  0  0  0
    6.3453    1.6879   -0.2103 C   0  0  0  0  0 15  0  0  0  0  0  0
    7.5303    1.8985   -0.4086 O   0  0  0  0  0 15  0  0  0  0  0  0
    4.6603    3.2834   -1.1319 C   0  0  0  0  0 15  0  0  0  0  0  0
    3.6143    3.6533   -2.2297 C   0  0  0  0  0 15  0  0  0  0  0  0
    2.9403    5.0081   -1.8734 C   0  0  0  0  0 15  0  0  0  0  0  0
    4.2403    3.7352   -3.6508 C   0  0  0  0  0 15  0  0  0  0  0  0
    5.9343    1.9375   -2.2825 H   0  0  0  0  0 15  0  0  0  0  0  0
    3.4803    0.9308   -1.0987 H   0  0  0  0  0 15  0  0  0  0  0  0
    5.4333    4.0680   -1.0995 H   0  0  0  0  0 15  0  0  0  0  0  0
    4.1573    3.2624   -0.1533 H   0  0  0  0  0 15  0  0  0  0  0  0
    2.8163    2.8917   -2.2534 H   0  0  0  0  0 15  0  0  0  0  0  0
    2.4643    4.9523   -0.8805 H   0  0  0  0  0 15  0  0  0  0  0  0
    2.1643    5.2653   -2.6085 H   0  0  0  0  0 15  0  0  0  0  0  0
    3.6883    5.8169   -1.8567 H   0  0  0  0  0 15  0  0  0  0  0  0
    5.1023    4.4217   -3.6491 H   0  0  0  0  0 15  0  0  0  0  0  0
    3.4993    4.1073   -4.3752 H   0  0  0  0  0 15  0  0  0  0  0  0
    4.5693    2.7453   -3.9970 H   0  0  0  0  0 15  0  0  0  0  0  0
    5.9124    1.2097    1.0102 N   0  0  0  0  0 15  0  0  0  0  0  0
    6.8424    0.9883    2.1155 C   0  0  0  0  0 15  0  0  0  0  0  0
    7.8234   -0.0850    1.6989 C   0  0  0  0  0 15  0  0  0  0  0  0
    9.0084    0.0738    1.9406 O   0  0  0  0  0 15  0  0  0  0  0  0
    6.1384    0.5465    3.4297 C   0  0  0  0  0 15  0  0  0  0  0  0
    5.0924    1.5637    3.9841 C   0  0  0  0  0 15  0  0  0  0  0  0
    4.4184    0.9784    5.2567 C   0  0  0  0  0 15  0  0  0  0  0  0
    5.7184    2.9492    4.3107 C   0  0  0  0  0 15  0  0  0  0  0  0
    7.4124    1.9128    2.3033 H   0  0  0  0  0 15  0  0  0  0  0  0
    4.9584    0.9211    1.1069 H   0  0  0  0  0 15  0  0  0  0  0  0
    6.9114    0.3788    4.1969 H   0  0  0  0  0 15  0  0  0  0  0  0
    5.6354   -0.4136    3.2397 H   0  0  0  0  0 15  0  0  0  0  0  0
    4.2944    1.7189    3.2380 H   0  0  0  0  0 15  0  0  0  0  0  0
    3.9424    0.0102    5.0300 H   0  0  0  0  0 15  0  0  0  0  0  0
    3.6424    1.6578    5.6373 H   0  0  0  0  0 15  0  0  0  0  0  0
    5.1664    0.8219    6.0504 H   0  0  0  0  0 15  0  0  0  0  0  0
    6.5804    2.8288    4.9865 H   0  0  0  0  0 15  0  0  0  0  0  0
    4.9774    3.5983    4.8025 H   0  0  0  0  0 15  0  0  0  0  0  0
    6.0474    3.4616    3.3956 H   0  0  0  0  0 15  0  0  0  0  0  0
    7.3905   -1.2043    1.0166 N   0  0  0  0  0 15  0  0  0  0  0  0
    8.6155   -1.9432    0.7249 C   0  0  0  0  0 15  0  0  0  0  0  0
    9.0405   -1.7427   -0.7080 C   0  0  0  0  0 15  0  0  0  0  0  0
    8.3985   -1.0369   -1.4872 O   0  0  0  0  0 15  0  0  0  0  0  0
    8.4465   -3.4449    1.0659 C   0  0  0  0  0 15  0  0  0  0  0  0
    7.5505   -4.1202    0.1776 O   0  0  0  0  0 15  0  0  0  0  0  0
    6.8915   -0.6071    0.2690 H   0  0  0  0  0 15  0  0  0  0  0  0
    9.4215   -1.5286    1.3600 H   0  0  0  0  0 15  0  0  0  0  0  0
    9.4315   -3.9511    1.0176 H   0  0  0  0  0 15  0  0  0  0  0  0
    8.1065   -3.5840    2.1100 H   0  0  0  0  0 15  0  0  0  0  0  0
    6.6835   -3.7182    0.2834 H   0  0  0  0  0 15  0  0  0  0  0  0
    8.8686   -0.7928   -1.3621 N   0  0  0  0  0 15  0  0  0  0  0  0
    9.7986   -0.2079   -2.3257 C   0  0  0  0  0 15  0  0  0  0  0  0
   10.7796    0.6591   -1.5681 C   0  0  0  0  0 15  0  0  0  0  0  0
   11.9646    0.5922   -1.8495 O   0  0  0  0  0 15  0  0  0  0  0  0
    9.0946    0.6554   -3.4106 C   0  0  0  0  0 15  0  0  0  0  0  0
    8.0486   -0.1118   -4.2785 C   0  0  0  0  0 15  0  0  0  0  0  0
    7.3746    0.8723   -5.2754 C   0  0  0  0  0 15  0  0  0  0  0  0
    8.6746   -1.3030   -5.0579 C   0  0  0  0  0 15  0  0  0  0  0  0
   10.3686   -1.0129   -2.8174 H   0  0  0  0  0 15  0  0  0  0  0  0
    7.9146   -0.4885   -1.3546 H   0  0  0  0  0 15  0  0  0  0  0  0
    9.8676    1.0746   -4.0747 H   0  0  0  0  0 15  0  0  0  0  0  0
    8.5916    1.4933   -2.9046 H   0  0  0  0  0 15  0  0  0  0  0  0
    7.2506   -0.5121   -3.6301 H   0  0  0  0  0 15  0  0  0  0  0  0
    6.8986    1.7052   -4.7321 H   0  0  0  0  0 15  0  0  0  0  0  0
    6.5986    0.3633   -5.8648 H   0  0  0  0  0 15  0  0  0  0  0  0
    8.1226    1.2900   -5.9682 H   0  0  0  0  0 15  0  0  0  0  0  0
    9.5366   -0.9594   -5.6522 H   0  0  0  0  0 15  0  0  0  0  0  0
    7.9336   -1.7455   -5.7415 H   0  0  0  0  0 15  0  0  0  0  0  0
    9.0036   -2.0966   -4.3723 H   0  0  0  0  0 15  0  0  0  0  0  0
   10.3467    1.4787   -0.5451 N   0  0  0  0  0 15  0  0  0  0  0  0
   11.5747    2.0689   -0.0211 C   0  0  0  0  0 15  0  0  0  0  0  0
   11.9897    1.3996    1.2672 C   0  0  0  0  0 15  0  0  0  0  0  0
   11.3467    0.4920    1.7574 O   0  0  0  0  0 15  0  0  0  0  0  0
   11.3977    3.6100    0.1908 C   0  0  0  0  0 15  0  0  0  0  0  0
   11.1187    4.2542   -1.0464 O   0  0  0  0  0 15  0  0  0  0  0  0
   12.6197    4.3685    0.7535 C   0  0  0  0  0 15  0  0  0  0  0  0
    9.8397    0.6698   -0.0404 H   0  0  0  0  0 15  0  0  0  0  0  0
   12.3837    1.9005   -0.7551 H   0  0  0  0  0 15  0  0  0  0  0  0
   10.5387    3.7739    0.8749 H   0  0  0  0  0 15  0  0  0  0  0  0
   10.9527    5.1778   -0.8366 H   0  0  0  0  0 15  0  0  0  0  0  0
   12.4267    5.4540    0.8511 H   0  0  0  0  0 15  0  0  0  0  0  0
   12.9037    4.0231    1.7620 H   0  0  0  0  0 15  0  0  0  0  0  0
   13.5097    4.2517    0.1055 H   0  0  0  0  0 15  0  0  0  0  0  0
   11.8248    0.2810    1.5507 N   0  0  0  0  0 15  0  0  0  0  0  0
   13.0708   -0.3346    2.0002 C   0  0  0  0  0 15  0  0  0  0  0  0
   13.4038   -1.5506    1.1691 C   0  0  0  0  0 15  0  0  0  0  0  0
   12.6788   -1.9301    0.2406 O   0  0  0  0  0 15  0  0  0  0  0  0
   12.9618   -0.7110    3.5301 C   0  0  0  0  0 15  0  0  0  0  0  0
   12.8148    0.5128    4.4687 C   0  0  0  0  0 15  0  0  0  0  0  0
   14.1338   -1.5452    4.1208 C   0  0  0  0  0 15  0  0  0  0  0  0
   11.2528   -0.1201    0.7271 H   0  0  0  0  0 15  0  0  0  0  0  0
   13.8948    0.3891    1.8597 H   0  0  0  0  0 15  0  0  0  0  0  0
   12.0448   -1.3276    3.6511 H   0  0  0  0  0 15  0  0  0  0  0  0
   13.7168    1.1513    4.4670 H   0  0  0  0  0 15  0  0  0  0  0  0
   11.9598    1.1497    4.1829 H   0  0  0  0  0 15  0  0  0  0  0  0
   12.6308    0.2056    5.5162 H   0  0  0  0  0 15  0  0  0  0  0  0
   15.1068   -1.0244    4.0329 H   0  0  0  0  0 15  0  0  0  0  0  0
   13.9828   -1.7774    5.1933 H   0  0  0  0  0 15  0  0  0  0  0  0
   14.2438   -2.5281    3.6268 H   0  0  0  0  0 15  0  0  0  0  0  0
   13.3029   -1.5760    0.0084 N   0  0  0  0  0 15  0  0  0  0  0  0
   14.5499   -1.9093   -0.6747 C   0  0  0  0  0 15  0  0  0  0  0  0
   14.8779   -0.8828   -1.7331 C   0  0  0  0  0 15  0  0  0  0  0  0
   14.1329    0.1113   -1.9538 O   0  0  0  0  0 15  0  0  0  0  0  0
   14.4319   -3.3101   -1.3479 C   0  0  0  0  0 15  0  0  0  0  0  0
   14.0979   -4.4892   -0.4219 C   0  0  0  0  0 15  0  0  0  0  0  0
   12.7599   -4.8091   -0.1669 C   0  0  0  0  0 15  0  0  0  0  0  0
   15.1119   -5.2076    0.2152 C   0  0  0  0  0 15  0  0  0  0  0  0
   12.4399   -5.8210    0.7332 C   0  0  0  0  0 15  0  0  0  0  0  0
   14.7919   -6.2290    1.1033 C   0  0  0  0  0 15  0  0  0  0  0  0
   13.4559   -6.5335    1.3673 C   0  0  0  0  0 15  0  0  0  0  0  0
   12.7259   -0.6987   -0.2469 H   0  0  0  0  0 15  0  0  0  0  0  0
   15.3729   -1.9139    0.0657 H   0  0  0  0  0 15  0  0  0  0  0  0
   13.6779   -3.2671   -2.1625 H   0  0  0  0  0 15  0  0  0  0  0  0
   15.3749   -3.5406   -1.8826 H   0  0  0  0  0 15  0  0  0  0  0  0
   11.9649   -4.2393   -0.6307 H   0  0  0  0  0 15  0  0  0  0  0  0
   16.1489   -4.9629    0.0313 H   0  0  0  0  0 15  0  0  0  0  0  0
   11.4049   -6.0404    0.9457 H   0  0  0  0  0 15  0  0  0  0  0  0
   15.5789   -6.7769    1.6032 H   0  0  0  0  0 15  0  0  0  0  0  0
   13.2059   -7.3157    2.0665 H   0  0  0  0  0 15  0  0  0  0  0  0
   14.7810    0.2645   -1.5536 N   0  0  0  0  0 15  0  0  0  0  0  0
   15.7140    1.3530   -1.8377 C   0  0  0  0  0 15  0  0  0  0  0  0
   16.6920    1.4717   -0.6913 C   0  0  0  0  0 15  0  0  0  0  0  0
   17.8760    1.6366   -0.9352 O   0  0  0  0  0 15  0  0  0  0  0  0
   15.0030    2.7285   -2.0068 C   0  0  0  0  0 15  0  0  0  0  0  0
   14.0490    2.7821   -3.2326 C   0  0  0  0  0 15  0  0  0  0  0  0
   14.8820    2.3660   -4.8040 S   0  0  0  0  0 15  0  0  0  0  0  0
   16.0380    3.7611   -5.0029 C   0  0  0  0  0 15  0  0  0  0  0  0
   16.2710    1.1100   -2.7580 H   0  0  0  0  0 15  0  0  0  0  0  0
   13.8040    0.4646   -1.4724 H   0  0  0  0  0 15  0  0  0  0  0  0
   15.7620    3.5206   -2.1111 H   0  0  0  0  0 15  0  0  0  0  0  0
   14.4230    2.9439   -1.0952 H   0  0  0  0  0 15  0  0  0  0  0  0
   13.6160    3.7919   -3.3201 H   0  0  0  0  0 15  0  0  0  0  0  0
   13.2180    2.0703   -3.1147 H   0  0  0  0  0 15  0  0  0  0  0  0
   15.5100    4.7146   -4.8655 H   0  0  0  0  0 15  0  0  0  0  0  0
   16.4530    3.7231   -6.0232 H   0  0  0  0  0 15  0  0  0  0  0  0
   16.8610    3.6781   -4.2823 H   0  0  0  0  0 15  0  0  0  0  0  0
   16.2591    1.4844    0.5294 N   0  0  0  0  0 15  0  0  0  0  0  0
   17.1891    1.6590    1.6431 C   0  0  0  0  0 15  0  0  0  0  0  0
   18.1701    0.5079    1.6234 C   0  0  0  0  0 15  0  0  0  0  0  0
   19.3551    0.7405    1.7953 O   0  0  0  0  0 15  0  0  0  0  0  0
   16.4851    1.6991    3.0290 C   0  0  0  0  0 15  0  0  0  0  0  0
   15.4391    2.8453    3.1973 C   0  0  0  0  0 15  0  0  0  0  0  0
   14.7651    2.7363    4.5938 C   0  0  0  0  0 15  0  0  0  0  0  0
   16.0651    4.2582    3.0245 C   0  0  0  0  0 15  0  0  0  0  0  0
   17.7591    2.5914    1.4996 H   0  0  0  0  0 15  0  0  0  0  0  0
   15.3051    1.2471    0.7200 H   0  0  0  0  0 15  0  0  0  0  0  0
   17.2581    1.8071    3.8068 H   0  0  0  0  0 15  0  0  0  0  0  0
   15.9821    0.7325    3.1828 H   0  0  0  0  0 15  0  0  0  0  0  0
   14.6411    2.7328    2.4436 H   0  0  0  0  0 15  0  0  0  0  0  0
   14.2891    1.7494    4.7160 H   0  0  0  0  0 15  0  0  0  0  0  0
   13.9891    3.5054    4.7159 H   0  0  0  0  0 15  0  0  0  0  0  0
   15.5131    2.8640    5.3927 H   0  0  0  0  0 15  0  0  0  0  0  0
   16.9271    4.3790    3.7002 H   0  0  0  0  0 15  0  0  0  0  0  0
   15.3241    5.0373    3.2615 H   0  0  0  0  0 15  0  0  0  0  0  0
   16.3941    4.4224    1.9887 H   0  0  0  0  0 15  0  0  0  0  0  0
   17.7372   -0.7783    1.3704 N   0  0  0  0  0 15  0  0  0  0  0  0
   18.6672   -1.9055    1.3496 C   0  0  0  0  0 15  0  0  0  0  0  0
   19.6482   -1.6868    0.2193 C   0  0  0  0  0 15  0  0  0  0  0  0
   20.8332   -1.8963    0.4186 O   0  0  0  0  0 15  0  0  0  0  0  0
   17.9632   -3.2773    1.1493 C   0  0  0  0  0 15  0  0  0  0  0  0
   16.9172   -3.6415    2.2490 C   0  0  0  0  0 15  0  0  0  0  0  0
   16.2432   -4.9981    1.9000 C   0  0  0  0  0 15  0  0  0  0  0  0
   17.5432   -3.7158    3.6705 C   0  0  0  0  0 15  0  0  0  0  0  0
   19.2372   -1.9254    2.2928 H   0  0  0  0  0 15  0  0  0  0  0  0
   16.7832   -0.9249    1.1037 H   0  0  0  0  0 15  0  0  0  0  0  0
   18.7362   -4.0622    1.1210 H   0  0  0  0  0 15  0  0  0  0  0  0
   17.4602   -3.2615    0.1706 H   0  0  0  0  0 15  0  0  0  0  0  0
   16.1192   -2.8797    2.2687 H   0  0  0  0  0 15  0  0  0  0  0  0
   15.7672   -4.9476    0.9068 H   0  0  0  0  0 15  0  0  0  0  0  0
   15.4672   -5.2514    2.6363 H   0  0  0  0  0 15  0  0  0  0  0  0
   16.9912   -5.8069    1.8875 H   0  0  0  0  0 15  0  0  0  0  0  0
   18.4052   -4.4023    3.6725 H   0  0  0  0  0 15  0  0  0  0  0  0
   16.8022   -4.0840    4.3969 H   0  0  0  0  0 15  0  0  0  0  0  0
   17.8722   -2.7240    4.0115 H   0  0  0  0  0 15  0  0  0  0  0  0
   19.2153   -1.2150   -1.0038 N   0  0  0  0  0 15  0  0  0  0  0  0
   20.4613   -1.0345   -1.7443 C   0  0  0  0  0 15  0  0  0  0  0  0
   20.7943    0.4308   -1.8936 C   0  0  0  0  0 15  0  0  0  0  0  0
   20.0693    1.3196   -1.4289 O   0  0  0  0  0 15  0  0  0  0  0  0
   20.3523   -1.7338   -3.1562 C   0  0  0  0  0 15  0  0  0  0  0  0
   20.2053   -3.2743   -3.0840 C   0  0  0  0  0 15  0  0  0  0  0  0
   21.5243   -1.4773   -4.1456 C   0  0  0  0  0 15  0  0  0  0  0  0
   18.6433   -0.3772   -0.6331 H   0  0  0  0  0 15  0  0  0  0  0  0
   21.2853   -1.4969   -1.1701 H   0  0  0  0  0 15  0  0  0  0  0  0
   19.4353   -1.3406   -3.6464 H   0  0  0  0  0 15  0  0  0  0  0  0
   21.1073   -3.7612   -2.6708 H   0  0  0  0  0 15  0  0  0  0  0  0
   19.3503   -3.5767   -2.4547 H   0  0  0  0  0 15  0  0  0  0  0  0
   20.0213   -3.7152   -4.0826 H   0  0  0  0  0 15  0  0  0  0  0  0
   22.4973   -1.8186   -3.7425 H   0  0  0  0  0 15  0  0  0  0  0  0
   21.3733   -1.9917   -5.1149 H   0  0  0  0  0 15  0  0  0  0  0  0
   21.6343   -0.4076   -4.4022 H   0  0  0  0  0 15  0  0  0  0  0  0
   20.6934    1.1989   -1.0230 N   0  0  0  0  0 15  0  0  0  0  0  0
   21.6564    2.2112   -0.6034 C   0  0  0  0  0 15  0  0  0  0  0  0
   22.6564    1.5738    0.3299 C   0  0  0  0  0 15  0  0  0  0  0  0
   23.8464    1.7380    0.1177 O   0  0  0  0  0 15  0  0  0  0  0  0
   20.9784    3.4070    0.1180 C   0  0  0  0  0 15  0  0  0  0  0  0
   22.1714    2.5975   -1.4989 H   0  0  0  0  0 15  0  0  0  0  0  0
   19.7244    1.3346   -0.8135 H   0  0  0  0  0 15  0  0  0  0  0  0
   20.4594    3.0757    1.0282 H   0  0  0  0  0 15  0  0  0  0  0  0
   20.2444    3.8819   -0.5525 H   0  0  0  0  0 15  0  0  0  0  0  0
   21.7344    4.1569    0.3987 H   0  0  0  0  0 15  0  0  0  0  0  0
   22.1715    0.8000    1.3578 N   0  0  0  0  0 15  0  0  0  0  0  0
   23.0815    0.2072    2.3368 C   0  0  0  0  0 15  0  0  0  0  0  0
   24.0975   -0.6463    1.6155 C   0  0  0  0  0 15  0  0  0  0  0  0
   25.2735   -0.5596    1.9347 O   0  0  0  0  0 15  0  0  0  0  0  0
   22.3385   -0.6397    3.4075 C   0  0  0  0  0 15  0  0  0  0  0  0
   21.3995    0.2336    4.2866 C   0  0  0  0  0 15  0  0  0  0  0  0
   20.6325   -0.5730    5.3062 C   0  0  0  0  0 15  0  0  0  0  0  0
   20.8555   -1.8082    5.4098 O   0  0  0  0  0 15  0  0  0  0  0  0
   19.7895    0.0327    6.0189 O   0  0  0  0  0 15  0  0  0  0  0  0
   23.6155    1.0169    2.8617 H   0  0  0  0  0 15  0  0  0  0  0  0
   21.2005    0.5617    1.3844 H   0  0  0  0  0 15  0  0  0  0  0  0
   23.0825   -1.1222    4.0618 H   0  0  0  0  0 15  0  0  0  0  0  0
   21.7575   -1.4271    2.9054 H   0  0  0  0  0 15  0  0  0  0  0  0
   20.6645    0.7631    3.6623 H   0  0  0  0  0 15  0  0  0  0  0  0
   21.9975    0.9848    4.8225 H   0  0  0  0  0 15  0  0  0  0  0  0
   23.6496   -1.4758    0.5530 N   0  0  0  0  0 15  0  0  0  0  0  0
   24.8986   -2.0168    0.0252 C   0  0  0  0  0 15  0  0  0  0  0  0
   25.2116   -1.4332   -1.3311 C   0  0  0  0  0 15  0  0  0  0  0  0
   26.4176   -1.8906   -1.9486 O   0  0  0  0  0 15  0  0  0  0  0  0
   24.8736   -3.5990   -0.0054 C   0  0  0  0  0 15  0  0  0  0  0  0
   24.4816   -4.2726    1.3474 C   0  0  0  0  0 15  0  0  0  0  0  0
   26.2256   -4.2177   -0.4808 C   0  0  0  0  0 15  0  0  0  0  0  0
   24.1326   -5.7747    1.2761 C   0  0  0  0  0 15  0  0  0  0  0  0
   23.0626   -0.7540    0.0057 H   0  0  0  0  0 15  0  0  0  0  0  0
   25.7136   -1.6962    0.7002 H   0  0  0  0  0 15  0  0  0  0  0  0
   24.0956   -3.8891   -0.7460 H   0  0  0  0  0 15  0  0  0  0  0  0
   25.2696   -4.0989    2.1053 H   0  0  0  0  0 15  0  0  0  0  0  0
   23.5846   -3.7736    1.7604 H   0  0  0  0  0 15  0  0  0  0  0  0
   26.1816   -5.3184   -0.5525 H   0  0  0  0  0 15  0  0  0  0  0  0
   26.5246   -3.8865   -1.4918 H   0  0  0  0  0 15  0  0  0  0  0  0
   27.0576   -3.9727    0.2048 H   0  0  0  0  0 15  0  0  0  0  0  0
   23.7966   -6.1520    2.2630 H   0  0  0  0  0 15  0  0  0  0  0  0
   23.3166   -5.9718    0.5600 H   0  0  0  0  0 15  0  0  0  0  0  0
   24.9956   -6.3959    0.9764 H   0  0  0  0  0 15  0  0  0  0  0  0
   25.1277   -0.2892   -1.5492 N   0  0  0  0  0 15  0  0  0  0  0  0
   26.0607    0.6338   -2.1922 C   0  0  0  0  0 15  0  0  0  0  0  0
   27.0387    1.1417   -1.1577 C   0  0  0  0  0 15  0  0  0  0  0  0
   28.2227    1.2121   -1.4436 O   0  0  0  0  0 15  0  0  0  0  0  0
   25.3497    1.8659   -2.8267 C   0  0  0  0  0 15  0  0  0  0  0  0
   24.3957    1.4923   -3.9954 C   0  0  0  0  0 15  0  0  0  0  0  0
   25.2287    0.5583   -5.3258 S   0  0  0  0  0 15  0  0  0  0  0  0
   26.3847    1.7985   -5.9950 C   0  0  0  0  0 15  0  0  0  0  0  0
   26.6177    0.0875   -2.9717 H   0  0  0  0  0 15  0  0  0  0  0  0
   24.1507   -0.0734   -1.5423 H   0  0  0  0  0 15  0  0  0  0  0  0
   26.1087    2.5730   -3.1985 H   0  0  0  0  0 15  0  0  0  0  0  0
   24.7697    2.3834   -2.0459 H   0  0  0  0  0 15  0  0  0  0  0  0
   23.9627    2.4094   -4.4268 H   0  0  0  0  0 15  0  0  0  0  0  0
   23.5647    0.8652   -3.6385 H   0  0  0  0  0 15  0  0  0  0  0  0
   25.8567    2.7406   -6.1959 H   0  0  0  0  0 15  0  0  0  0  0  0
   26.7997    1.4099   -6.9392 H   0  0  0  0  0 15  0  0  0  0  0  0
   27.2077    1.9698   -5.2902 H   0  0  0  0  0 15  0  0  0  0  0  0
   26.6058    1.5759   -0.0167 N   0  0  0  0  0 15  0  0  0  0  0  0
   28.0168    1.7920    0.5238 C   0  0  0  0  0 15  0  0  0  0  0  0
   28.3678    0.9258    1.7298 C   0  0  0  0  0 15  0  0  0  0  0  0
   27.4928    0.1328    2.1599 O   0  0  0  0  0 15  0  0  0  0  0  0
   28.0878    3.2500    0.9571 C   0  0  0  0  0 15  0  0  0  0  0  0
   26.6468    3.4765    1.4428 C   0  0  0  0  0 15  0  0  0  0  0  0
   25.7938    2.7437    0.4018 C   0  0  0  0  0 15  0  0  0  0  0  0
   28.7448    1.5683   -0.2428 H   0  0  0  0  0 15  0  0  0  0  0  0
   28.7658    3.3403    1.8222 H   0  0  0  0  0 15  0  0  0  0  0  0
   28.2778    3.8802    0.0791 H   0  0  0  0  0 15  0  0  0  0  0  0
   26.3788    2.8987    2.3411 H   0  0  0  0  0 15  0  0  0  0  0  0
   26.4918    4.5635    1.4588 H   0  0  0  0  0 15  0  0  0  0  0  0
   24.8558    2.3949    0.8671 H   0  0  0  0  0 15  0  0  0  0  0  0
   25.6388    3.4010   -0.4675 H   0  0  0  0  0 15  0  0  0  0  0  0
   28.0839   -0.2563    1.5550 N   0  0  0  0  0 15  0  0  0  0  0  0
   29.0469   -1.3005    1.8873 C   0  0  0  0  0 15  0  0  0  0  0  0
   30.0469   -1.4154    0.7631 C   0  0  0  0  0 15  0  0  0  0  0  0
   31.2369   -1.4040    1.0312 O   0  0  0  0  0 15  0  0  0  0  0  0
   28.3689   -2.6795    2.1075 C   0  0  0  0  0 15  0  0  0  0  0  0
   29.5619   -1.0180    2.8209 H   0  0  0  0  0 15  0  0  0  0  0  0
   27.1149   -0.4951    1.4825 H   0  0  0  0  0 15  0  0  0  0  0  0
   27.8499   -3.0135    1.1983 H   0  0  0  0  0 15  0  0  0  0  0  0
   27.6349   -2.6099    2.9262 H   0  0  0  0  0 15  0  0  0  0  0  0
   29.1249   -3.4337    2.3767 H   0  0  0  0  0 15  0  0  0  0  0  0
   29.5620   -1.4872   -0.5215 N   0  0  0  0  0 15  0  0  0  0  0  0
   30.7900   -1.6084   -1.3014 C   0  0  0  0  0 15  0  0  0  0  0  0
   31.2050   -0.2719   -1.8683 C   0  0  0  0  0 15  0  0  0  0  0  0
   30.5620    0.7400   -1.6683 O   0  0  0  0  0 15  0  0  0  0  0  0
   30.6130   -2.6616   -2.4463 C   0  0  0  0  0 15  0  0  0  0  0  0
   30.3340   -3.9462   -1.9027 O   0  0  0  0  0 15  0  0  0  0  0  0
   31.8350   -2.8880   -3.3632 C   0  0  0  0  0 15  0  0  0  0  0  0
   29.0550   -0.5421   -0.3955 H   0  0  0  0  0 15  0  0  0  0  0  0
   31.5990   -1.9461   -0.6283 H   0  0  0  0  0 15  0  0  0  0  0  0
   29.7540   -2.3522   -3.0781 H   0  0  0  0  0 15  0  0  0  0  0  0
   30.1680   -4.5247   -2.6528 H   0  0  0  0  0 15  0  0  0  0  0  0
   31.6420   -3.6626   -4.1298 H   0  0  0  0  0 15  0  0  0  0  0  0
   32.1190   -1.9793   -3.9207 H   0  0  0  0  0 15  0  0  0  0  0  0
   32.7250   -3.2106   -2.7892 H   0  0  0  0  0 15  0  0  0  0  0  0
   31.0401    0.7711   -1.3745 N   0  0  0  0  0 15  0  0  0  0  0  0
   32.2651    1.5653   -1.3606 C   0  0  0  0  0 15  0  0  0  0  0  0
   32.6901    1.8803    0.0516 C   0  0  0  0  0 15  0  0  0  0  0  0
   32.0481    1.4928    1.0288 O   0  0  0  0  0 15  0  0  0  0  0  0
   32.0961    2.8519   -2.2068 C   0  0  0  0  0 15  0  0  0  0  0  0
   31.2001    3.7959   -1.6119 O   0  0  0  0  0 15  0  0  0  0  0  0
   30.5411    0.4741   -0.4649 H   0  0  0  0  0 15  0  0  0  0  0  0
   33.0711    0.9543   -1.8098 H   0  0  0  0  0 15  0  0  0  0  0  0
   33.0811    3.3428   -2.3392 H   0  0  0  0  0 15  0  0  0  0  0  0
   31.7561    2.6159   -3.2333 H   0  0  0  0  0 15  0  0  0  0  0  0
   30.3331    3.3824   -1.5700 H   0  0  0  0  0 15  0  0  0  0  0  0
   32.5182    1.2203    0.9973 N   0  0  0  0  0 15  0  0  0  0  0  0
   33.7952    0.9508    1.7093 C   0  0  0  0  0 15  0  0  0  0  0  0
   34.1752   -0.5353    2.0420 C   0  0  0  0  0 15  0  0  0  0  0  0
   33.5232   -1.5022    1.7218 O   0  0  0  0  0 15  0  0  0  0  0  0
   33.7332    1.8439    2.9632 C   0  0  0  0  0 15  0  0  0  0  0  0
   35.0812    2.0973    3.6919 C   0  0  0  0  0 15  0  0  0  0  0  0
   36.1052    1.8180    3.0631 O   0  0  0  0  0 15  0  0  0  0  0  0
   34.9642    2.5702    4.8229 O   0  0  0  0  0 15  0  0  0  0  0  0
   32.0582    0.3572    0.7459 H   0  0  0  0  0 15  0  0  0  0  0  0
   34.6042    1.3300    1.0540 H   0  0  0  0  0 15  0  0  0  0  0  0
   33.3762    2.8493    2.6820 H   0  0  0  0  0 15  0  0  0  0  0  0
   32.9992    1.4660    3.6959 H   0  0  0  0  0 15  0  0  0  0  0  0
   33.9963   -1.1934    1.0293 N   0  0  0  0  0 15  0  0  0  0  0  0
   35.2213   -1.9354    0.7455 C   0  0  0  0  0 15  0  0  0  0  0  0
   35.6463   -1.7501   -0.6895 C   0  0  0  0  0 15  0  0  0  0  0  0
   35.0043   -1.0527   -1.4761 O   0  0  0  0  0 15  0  0  0  0  0  0
   35.0523   -3.4334    1.1024 C   0  0  0  0  0 15  0  0  0  0  0  0
   34.1563   -4.1181    0.2213 O   0  0  0  0  0 15  0  0  0  0  0  0
   33.4973   -0.6042    0.2754 H   0  0  0  0  0 15  0  0  0  0  0  0
   36.0273   -1.5141    1.3761 H   0  0  0  0  0 15  0  0  0  0  0  0
   36.0373   -3.9400    1.0595 H   0  0  0  0  0 15  0  0  0  0  0  0
   34.7123   -3.5615    2.1479 H   0  0  0  0  0 15  0  0  0  0  0  0
   33.2893   -3.7150    0.3228 H   0  0  0  0  0 15  0  0  0  0  0  0
   35.4744   -0.8072   -1.3536 N   0  0  0  0  0 15  0  0  0  0  0  0
   36.7204   -0.3885   -1.9904 C   0  0  0  0  0 15  0  0  0  0  0  0
   37.0534    1.0418   -1.6389 C   0  0  0  0  0 15  0  0  0  0  0  0
   36.3284    1.7229   -0.9025 O   0  0  0  0  0 15  0  0  0  0  0  0
   36.6114   -0.5728   -3.5552 C   0  0  0  0  0 15  0  0  0  0  0  0
   36.4644   -2.0481   -4.0047 C   0  0  0  0  0 15  0  0  0  0  0  0
   37.7834    0.0011   -4.4010 C   0  0  0  0  0 15  0  0  0  0  0  0
   34.9024   -0.1426   -0.7231 H   0  0  0  0  0 15  0  0  0  0  0  0
   37.5444   -1.0169   -1.6050 H   0  0  0  0  0 15  0  0  0  0  0  0
   35.6944   -0.0378   -3.8848 H   0  0  0  0  0 15  0  0  0  0  0  0
   37.3664   -2.6454   -3.7791 H   0  0  0  0  0 15  0  0  0  0  0  0
   35.6094   -2.5443   -3.5135 H   0  0  0  0  0 15  0  0  0  0  0  0
   36.2804   -2.1279   -5.0934 H   0  0  0  0  0 15  0  0  0  0  0  0
   38.7564   -0.4557   -4.1360 H   0  0  0  0  0 15  0  0  0  0  0  0
   37.6324   -0.1577   -5.4867 H   0  0  0  0  0 15  0  0  0  0  0  0
   37.8934    1.0949   -4.2833 H   0  0  0  0  0 15  0  0  0  0  0  0
   36.9525    1.4729   -0.5608 N   0  0  0  0  0 15  0  0  0  0  0  0
   38.3635    1.8626   -0.1283 C   0  0  0  0  0 15  0  0  0  0  0  0
   38.7145    1.4670    1.3028 C   0  0  0  0  0 15  0  0  0  0  0  0
   37.8395    0.8717    1.9807 O   0  0  0  0  0 15  0  0  0  0  0  0
   38.4345    3.3804   -0.2261 C   0  0  0  0  0 15  0  0  0  0  0  0
   36.9935    3.7610    0.1513 C   0  0  0  0  0 15  0  0  0  0  0  0
   36.1405    2.7133   -0.5721 C   0  0  0  0  0 15  0  0  0  0  0  0
   39.0915    1.3875   -0.7703 H   0  0  0  0  0 15  0  0  0  0  0  0
   39.1125    3.7644    0.5543 H   0  0  0  0  0 15  0  0  0  0  0  0
   38.6245    3.6681   -1.2679 H   0  0  0  0  0 15  0  0  0  0  0  0
   36.7255    3.5295    1.1940 H   0  0  0  0  0 15  0  0  0  0  0  0
   36.8385    4.7864   -0.2098 H   0  0  0  0  0 15  0  0  0  0  0  0
   35.2025    2.5470   -0.0148 H   0  0  0  0  0 15  0  0  0  0  0  0
   35.9855    3.0294   -1.6150 H   0  0  0  0  0 15  0  0  0  0  0  0
   38.4306    0.2974    1.5477 N   0  0  0  0  0 15  0  0  0  0  0  0
   39.3606   -0.5735    2.2635 C   0  0  0  0  0 15  0  0  0  0  0  0
   40.3416   -1.1409    1.2617 C   0  0  0  0  0 15  0  0  0  0  0  0
   41.5266   -1.1709    1.5493 O   0  0  0  0  0 15  0  0  0  0  0  0
   38.6566   -1.7472    3.0015 C   0  0  0  0  0 15  0  0  0  0  0  0
   37.6106   -1.3103    4.0745 C   0  0  0  0  0 15  0  0  0  0  0  0
   36.9366   -2.5689    4.6895 C   0  0  0  0  0 15  0  0  0  0  0  0
   38.2366   -0.4442    5.2041 C   0  0  0  0  0 15  0  0  0  0  0  0
   39.9306    0.0235    2.9939 H   0  0  0  0  0 15  0  0  0  0  0  0
   37.4766    0.0127    1.4399 H   0  0  0  0  0 15  0  0  0  0  0  0
   39.4296   -2.3625    3.4895 H   0  0  0  0  0 15  0  0  0  0  0  0
   38.1536   -2.3704    2.2468 H   0  0  0  0  0 15  0  0  0  0  0  0
   36.8126   -0.7181    3.5950 H   0  0  0  0  0 15  0  0  0  0  0  0
   36.4606   -3.1751    3.9012 H   0  0  0  0  0 15  0  0  0  0  0  0
   36.1606   -2.2836    5.4141 H   0  0  0  0  0 15  0  0  0  0  0  0
   37.6846   -3.1923    5.2050 H   0  0  0  0  0 15  0  0  0  0  0  0
   39.0986   -0.9651    5.6512 H   0  0  0  0  0 15  0  0  0  0  0  0
   37.4956   -0.2528    5.9957 H   0  0  0  0  0 15  0  0  0  0  0  0
   38.5656    0.5316    4.8198 H   0  0  0  0  0 15  0  0  0  0  0  0
   39.9087   -1.5758    0.0251 N   0  0  0  0  0 15  0  0  0  0  0  0
   41.1577   -1.9081   -0.6538 C   0  0  0  0  0 15  0  0  0  0  0  0
   41.4707   -0.9027   -1.7352 C   0  0  0  0  0 15  0  0  0  0  0  0
   42.6767   -1.1261   -2.4704 O   0  0  0  0  0 15  0  0  0  0  0  0
   41.1327   -3.3880   -1.2141 C   0  0  0  0  0 15  0  0  0  0  0  0
   40.7407   -4.4769   -0.1661 C   0  0  0  0  0 15  0  0  0  0  0  0
   42.4847   -3.8111   -1.8697 C   0  0  0  0  0 15  0  0  0  0  0  0
   40.3917   -5.8678   -0.7379 C   0  0  0  0  0 15  0  0  0  0  0  0
   39.3217   -0.7121   -0.2480 H   0  0  0  0  0 15  0  0  0  0  0  0
   41.9727   -1.8328    0.0897 H   0  0  0  0  0 15  0  0  0  0  0  0
   40.3547   -3.4125   -2.0090 H   0  0  0  0  0 15  0  0  0  0  0  0
   41.5287   -4.5680    0.6061 H   0  0  0  0  0 15  0  0  0  0  0  0
   39.8437   -4.1457    0.3905 H   0  0  0  0  0 15  0  0  0  0  0  0
   42.4407   -4.8237   -2.3069 H   0  0  0  0  0 15  0  0  0  0  0  0
   42.7837   -3.1595   -2.7107 H   0  0  0  0  0 15  0  0  0  0  0  0
   43.3167   -3.8107   -1.1417 H   0  0  0  0  0 15  0  0  0  0  0  0
   40.0557   -6.5547    0.0650 H   0  0  0  0  0 15  0  0  0  0  0  0
   39.5757   -5.8129   -1.4786 H   0  0  0  0  0 15  0  0  0  0  0  0
   41.2547   -6.3522   -1.2288 H   0  0  0  0  0 15  0  0  0  0  0  0
   41.4257    0.1167   -1.6108 O   0  0  0  0  0 15  0  0  0  0  0  0
   42.1167    0.7477   -1.7869 H   0  0  0  0  0 15  0  0  0  0  0  0
M  END
$$$$
