drugbank_drug|DB06655 Liraglutide Sequence (gamma-E-palmitoyl at E21)
 OpenBabel12092119123D

482487  0  0  0  0  0  0  0  0999 V2000
   -0.9080    1.9825   -0.1171 H   0  0  0  0  0 15  0  0  0  0  0  0
    0.0000    1.5760    0.0000 N   0  0  0  0  0 15  0  0  0  0  0  0
    0.9500    2.0490    0.9999 C   0  0  0  0  0 15  0  0  0  0  0  0
    1.9340    0.9438    1.3031 C   0  0  0  0  0 15  0  0  0  0  0  0
    3.1260    1.2075    1.2941 O   0  0  0  0  0 15  0  0  0  0  0  0
    0.2550    2.5559    2.2919 C   0  0  0  0  0 15  0  0  0  0  0  0
   -0.6590    3.7299    2.0183 C   0  0  0  0  0 15  0  0  0  0  0  0
   -0.2680    4.8468    1.4463 N   0  0  0  0  0 15  0  0  0  0  0  0
   -1.9700    3.8092    2.3198 C   0  0  0  0  0 15  0  0  0  0  0  0
   -1.2690    5.6612    1.3375 C   0  0  0  0  0 15  0  0  0  0  0  0
   -2.2930    5.1212    1.8231 N   0  0  0  0  0 15  0  0  0  0  0  0
    1.5090    2.8867    0.5522 H   0  0  0  0  0 15  0  0  0  0  0  0
   -0.9770    1.6109    0.2057 H   0  0  0  0  0 15  0  0  0  0  0  0
    1.0200    2.8775    3.0167 H   0  0  0  0  0 15  0  0  0  0  0  0
   -0.3200    1.7324    2.7462 H   0  0  0  0  0 15  0  0  0  0  0  0
    0.6910    5.0553    1.1252 H   0  0  0  0  0 15  0  0  0  0  0  0
   -2.6320    3.0943    2.8028 H   0  0  0  0  0 15  0  0  0  0  0  0
   -1.2420    6.6588    0.8977 H   0  0  0  0  0 15  0  0  0  0  0  0
    1.4781   -0.2728    1.5522 N   0  0  0  0  0 15  0  0  0  0  0  0
    2.4411   -1.3204    1.8734 C   0  0  0  0  0 15  0  0  0  0  0  0
    3.4411   -1.4234    0.7480 C   0  0  0  0  0 15  0  0  0  0  0  0
    4.6311   -1.4149    1.0162 O   0  0  0  0  0 15  0  0  0  0  0  0
    1.7631   -2.7017    2.0789 C   0  0  0  0  0 15  0  0  0  0  0  0
    2.9561   -1.0479    2.8100 H   0  0  0  0  0 15  0  0  0  0  0  0
    0.5091   -0.5108    1.4772 H   0  0  0  0  0 15  0  0  0  0  0  0
    1.2441   -3.0260    1.1662 H   0  0  0  0  0 15  0  0  0  0  0  0
    1.0291   -2.6408    2.8983 H   0  0  0  0  0 15  0  0  0  0  0  0
    2.5191   -3.4587    2.3402 H   0  0  0  0  0 15  0  0  0  0  0  0
    2.9562   -1.4816   -0.5373 N   0  0  0  0  0 15  0  0  0  0  0  0
    3.8662   -1.6481   -1.6696 C   0  0  0  0  0 15  0  0  0  0  0  0
    4.8822   -0.5307   -1.6571 C   0  0  0  0  0 15  0  0  0  0  0  0
    6.0582   -0.8008   -1.8480 O   0  0  0  0  0 15  0  0  0  0  0  0
    3.1232   -1.6771   -3.0344 C   0  0  0  0  0 15  0  0  0  0  0  0
    2.1842   -2.9102   -3.1560 C   0  0  0  0  0 15  0  0  0  0  0  0
    1.4172   -2.9378   -4.4557 C   0  0  0  0  0 15  0  0  0  0  0  0
    1.6402   -2.0515   -5.3223 O   0  0  0  0  0 15  0  0  0  0  0  0
    0.5742   -3.8587   -4.6194 O   0  0  0  0  0 15  0  0  0  0  0  0
    4.4002   -2.6066   -1.5585 H   0  0  0  0  0 15  0  0  0  0  0  0
    1.9852   -1.3148   -0.7095 H   0  0  0  0  0 15  0  0  0  0  0  0
    3.8672   -1.7218   -3.8462 H   0  0  0  0  0 15  0  0  0  0  0  0
    2.5422   -0.7503   -3.1488 H   0  0  0  0  0 15  0  0  0  0  0  0
    1.4492   -2.9209   -2.3374 H   0  0  0  0  0 15  0  0  0  0  0  0
    2.7822   -3.8307   -3.0907 H   0  0  0  0  0 15  0  0  0  0  0  0
    4.4343    0.7856   -1.3662 N   0  0  0  0  0 15  0  0  0  0  0  0
    5.6823    1.5406   -1.3081 C   0  0  0  0  0 15  0  0  0  0  0  0
    6.0033    1.9468    0.1112 C   0  0  0  0  0 15  0  0  0  0  0  0
    5.2733    1.6524    1.0522 O   0  0  0  0  0 15  0  0  0  0  0  0
    3.8533    0.5714   -0.4812 H   0  0  0  0  0 15  0  0  0  0  0  0
    6.5153    0.9358   -1.7096 H   0  0  0  0  0 15  0  0  0  0  0  0
    5.6113    2.4464   -1.9380 H   0  0  0  0  0 15  0  0  0  0  0  0
    5.9124    1.2097    1.0102 N   0  0  0  0  0 15  0  0  0  0  0  0
    7.1404    1.0496    1.7830 C   0  0  0  0  0 15  0  0  0  0  0  0
    7.5554   -0.4009    1.8449 C   0  0  0  0  0 15  0  0  0  0  0  0
    6.9124   -1.2783    1.3026 O   0  0  0  0  0 15  0  0  0  0  0  0
    6.9634    1.6340    3.2246 C   0  0  0  0  0 15  0  0  0  0  0  0
    6.6844    3.0277    3.1664 O   0  0  0  0  0 15  0  0  0  0  0  0
    8.1854    1.5243    4.1627 C   0  0  0  0  0 15  0  0  0  0  0  0
    5.4054    0.3689    0.5605 H   0  0  0  0  0 15  0  0  0  0  0  0
    7.9494    1.6019    1.2712 H   0  0  0  0  0 15  0  0  0  0  0  0
    6.1044    1.1227    3.7078 H   0  0  0  0  0 15  0  0  0  0  0  0
    6.5184    3.3063    4.0717 H   0  0  0  0  0 15  0  0  0  0  0  0
    7.9924    1.9808    5.1524 H   0  0  0  0  0 15  0  0  0  0  0  0
    8.4694    0.4779    4.3659 H   0  0  0  0  0 15  0  0  0  0  0  0
    9.0754    2.0279    3.7384 H   0  0  0  0  0 15  0  0  0  0  0  0
    7.3905   -1.2043    1.0166 N   0  0  0  0  0 15  0  0  0  0  0  0
    8.6375   -1.8980    0.7059 C   0  0  0  0  0 15  0  0  0  0  0  0
    8.9655   -1.7885   -0.7644 C   0  0  0  0  0 15  0  0  0  0  0  0
    8.2205   -1.1669   -1.5710 O   0  0  0  0  0 15  0  0  0  0  0  0
    8.5195   -3.4046    1.0871 C   0  0  0  0  0 15  0  0  0  0  0  0
    8.1855   -3.7161    2.5537 C   0  0  0  0  0 15  0  0  0  0  0  0
    6.8475   -3.7983    2.9544 C   0  0  0  0  0 15  0  0  0  0  0  0
    9.1995   -3.8592    3.5031 C   0  0  0  0  0 15  0  0  0  0  0  0
    6.5275   -3.9980    4.2939 C   0  0  0  0  0 15  0  0  0  0  0  0
    8.8795   -4.0740    4.8395 C   0  0  0  0  0 15  0  0  0  0  0  0
    7.5435   -4.1384    5.2373 C   0  0  0  0  0 15  0  0  0  0  0  0
    6.8135   -0.6945    0.2583 H   0  0  0  0  0 15  0  0  0  0  0  0
    9.4605   -1.4269    1.2772 H   0  0  0  0  0 15  0  0  0  0  0  0
    7.7655   -3.8939    0.4343 H   0  0  0  0  0 15  0  0  0  0  0  0
    9.4625   -3.9243    0.8245 H   0  0  0  0  0 15  0  0  0  0  0  0
    6.0525   -3.6582    2.2332 H   0  0  0  0  0 15  0  0  0  0  0  0
   10.2365   -3.7893    3.2051 H   0  0  0  0  0 15  0  0  0  0  0  0
    5.4925   -4.0302    4.5977 H   0  0  0  0  0 15  0  0  0  0  0  0
    9.6665   -4.1740    5.5745 H   0  0  0  0  0 15  0  0  0  0  0  0
    7.2935   -4.2906    6.2754 H   0  0  0  0  0 15  0  0  0  0  0  0
    8.8686   -0.7928   -1.3621 N   0  0  0  0  0 15  0  0  0  0  0  0
   10.0966   -0.3788   -2.0340 C   0  0  0  0  0 15  0  0  0  0  0  0
   10.5116    1.0059   -1.5977 C   0  0  0  0  0 15  0  0  0  0  0  0
    9.8686    1.6457   -0.7888 O   0  0  0  0  0 15  0  0  0  0  0  0
    9.9196   -0.4368   -3.5885 C   0  0  0  0  0 15  0  0  0  0  0  0
    9.6406   -1.7669   -4.0089 O   0  0  0  0  0 15  0  0  0  0  0  0
   11.1416   -0.0139   -4.4330 C   0  0  0  0  0 15  0  0  0  0  0  0
    8.3616   -0.1557   -0.6527 H   0  0  0  0  0 15  0  0  0  0  0  0
   10.9056   -1.0726   -1.7411 H   0  0  0  0  0 15  0  0  0  0  0  0
    9.0606    0.2086   -3.8684 H   0  0  0  0  0 15  0  0  0  0  0  0
    9.4746   -1.7201   -4.9549 H   0  0  0  0  0 15  0  0  0  0  0  0
   10.9486   -0.1056   -5.5190 H   0  0  0  0  0 15  0  0  0  0  0  0
   11.4256    1.0392   -4.2673 H   0  0  0  0  0 15  0  0  0  0  0  0
   12.0316   -0.6319   -4.2058 H   0  0  0  0  0 15  0  0  0  0  0  0
   10.3467    1.4787   -0.5451 N   0  0  0  0  0 15  0  0  0  0  0  0
   11.5717    2.0739   -0.0191 C   0  0  0  0  0 15  0  0  0  0  0  0
   11.9967    1.3969    1.2597 C   0  0  0  0  0 15  0  0  0  0  0  0
   11.3547    0.4678    1.7516 O   0  0  0  0  0 15  0  0  0  0  0  0
   11.4027    3.6019    0.1723 C   0  0  0  0  0 15  0  0  0  0  0  0
   10.5067    3.9339    1.2377 O   0  0  0  0  0 15  0  0  0  0  0  0
    9.8477    0.6624   -0.0459 H   0  0  0  0  0 15  0  0  0  0  0  0
   12.3777    1.9007   -0.7574 H   0  0  0  0  0 15  0  0  0  0  0  0
   12.3877    4.0613    0.3903 H   0  0  0  0  0 15  0  0  0  0  0  0
   11.0627    4.0886   -0.7617 H   0  0  0  0  0 15  0  0  0  0  0  0
    9.6397    3.5921    1.0011 H   0  0  0  0  0 15  0  0  0  0  0  0
   11.8248    0.2810    1.5507 N   0  0  0  0  0 15  0  0  0  0  0  0
   13.1018   -0.3862    1.9175 C   0  0  0  0  0 15  0  0  0  0  0  0
   13.4818   -1.7326    1.2059 C   0  0  0  0  0 15  0  0  0  0  0  0
   12.8298   -2.2603    0.3348 O   0  0  0  0  0 15  0  0  0  0  0  0
   13.0398   -0.5207    3.4509 C   0  0  0  0  0 15  0  0  0  0  0  0
   14.3878   -0.8009    4.1698 C   0  0  0  0  0 15  0  0  0  0  0  0
   15.4118   -0.6053    3.5102 O   0  0  0  0  0 15  0  0  0  0  0  0
   14.2708   -1.1753    5.3371 O   0  0  0  0  0 15  0  0  0  0  0  0
   11.3648   -0.2124    0.7993 H   0  0  0  0  0 15  0  0  0  0  0  0
   13.9108    0.3276    1.6651 H   0  0  0  0  0 15  0  0  0  0  0  0
   12.6828    0.4266    3.8897 H   0  0  0  0  0 15  0  0  0  0  0  0
   12.3058   -1.2837    3.7631 H   0  0  0  0  0 15  0  0  0  0  0  0
   13.3029   -1.5760    0.0084 N   0  0  0  0  0 15  0  0  0  0  0  0
   14.5489   -1.9121   -0.6757 C   0  0  0  0  0 15  0  0  0  0  0  0
   14.8819   -0.8831   -1.7296 C   0  0  0  0  0 15  0  0  0  0  0  0
   14.1569    0.0970   -1.9426 O   0  0  0  0  0 15  0  0  0  0  0  0
   14.4399   -3.3538   -1.3112 C   0  0  0  0  0 15  0  0  0  0  0  0
   14.2929   -4.4900   -0.2684 C   0  0  0  0  0 15  0  0  0  0  0  0
   15.6119   -3.7912   -2.2351 C   0  0  0  0  0 15  0  0  0  0  0  0
   12.7309   -0.6954   -0.2442 H   0  0  0  0  0 15  0  0  0  0  0  0
   15.3729   -1.8990    0.0614 H   0  0  0  0  0 15  0  0  0  0  0  0
   13.5229   -3.3663   -1.9395 H   0  0  0  0  0 15  0  0  0  0  0  0
   15.1949   -4.5989    0.3608 H   0  0  0  0  0 15  0  0  0  0  0  0
   13.4379   -4.3187    0.4085 H   0  0  0  0  0 15  0  0  0  0  0  0
   14.1089   -5.4685   -0.7522 H   0  0  0  0  0 15  0  0  0  0  0  0
   16.5849   -3.7948   -1.7069 H   0  0  0  0  0 15  0  0  0  0  0  0
   15.4609   -4.8073   -2.6494 H   0  0  0  0  0 15  0  0  0  0  0  0
   15.7219   -3.1346   -3.1177 H   0  0  0  0  0 15  0  0  0  0  0  0
   14.7810    0.2645   -1.5536 N   0  0  0  0  0 15  0  0  0  0  0  0
   16.0060    1.0173   -1.8074 C   0  0  0  0  0 15  0  0  0  0  0  0
   16.4310    1.7884   -0.5830 C   0  0  0  0  0 15  0  0  0  0  0  0
   15.7890    1.7517    0.4676 O   0  0  0  0  0 15  0  0  0  0  0  0
   15.8370    1.9448   -3.0366 C   0  0  0  0  0 15  0  0  0  0  0  0
   14.9410    3.0339   -2.7934 O   0  0  0  0  0 15  0  0  0  0  0  0
   14.2820    0.2904   -0.5971 H   0  0  0  0  0 15  0  0  0  0  0  0
   16.8120    0.2909   -2.0252 H   0  0  0  0  0 15  0  0  0  0  0  0
   16.8220    2.3628   -3.3262 H   0  0  0  0  0 15  0  0  0  0  0  0
   15.4970    1.3777   -3.9242 H   0  0  0  0  0 15  0  0  0  0  0  0
   14.0740    2.6584   -2.6150 H   0  0  0  0  0 15  0  0  0  0  0  0
   16.2591    1.4844    0.5294 N   0  0  0  0  0 15  0  0  0  0  0  0
   17.4841    1.6041    1.3147 C   0  0  0  0  0 15  0  0  0  0  0  0
   17.9091    0.2647    1.8623 C   0  0  0  0  0 15  0  0  0  0  0  0
   17.2671   -0.7637    1.6443 O   0  0  0  0  0 15  0  0  0  0  0  0
   17.3151    2.6542    2.4410 C   0  0  0  0  0 15  0  0  0  0  0  0
   16.4191    2.2262    3.4715 O   0  0  0  0  0 15  0  0  0  0  0  0
   15.7601    0.5379    0.3894 H   0  0  0  0  0 15  0  0  0  0  0  0
   18.2901    1.9443    0.6370 H   0  0  0  0  0 15  0  0  0  0  0  0
   18.3001    2.8671    2.9028 H   0  0  0  0  0 15  0  0  0  0  0  0
   16.9751    3.6265    2.0361 H   0  0  0  0  0 15  0  0  0  0  0  0
   15.5521    2.1154    3.0709 H   0  0  0  0  0 15  0  0  0  0  0  0
   17.7372   -0.7783    1.3704 N   0  0  0  0  0 15  0  0  0  0  0  0
   18.9672   -1.5651    1.3487 C   0  0  0  0  0 15  0  0  0  0  0  0
   19.3752   -1.8907   -0.0695 C   0  0  0  0  0 15  0  0  0  0  0  0
   18.7182   -1.5143   -1.0399 O   0  0  0  0  0 15  0  0  0  0  0  0
   18.7802   -2.9064    2.1159 C   0  0  0  0  0 15  0  0  0  0  0  0
   18.4442   -2.8075    3.6060 C   0  0  0  0  0 15  0  0  0  0  0  0
   19.4412   -2.5223    4.5462 C   0  0  0  0  0 15  0  0  0  0  0  0
   17.1262   -2.9897    4.0363 C   0  0  0  0  0 15  0  0  0  0  0  0
   19.1202   -2.4205    5.8965 C   0  0  0  0  0 15  0  0  0  0  0  0
   16.8072   -2.8842    5.3875 C   0  0  0  0  0 15  0  0  0  0  0  0
   17.8052   -2.6000    6.3158 C   0  0  0  0  0 15  0  0  0  0  0  0
   17.4932   -2.4946    7.6421 O   0  0  0  0  0 15  0  0  0  0  0  0
   17.2252   -0.4917    0.4639 H   0  0  0  0  0 15  0  0  0  0  0  0
   19.7792   -0.9731    1.8089 H   0  0  0  0  0 15  0  0  0  0  0  0
   18.0092   -3.5194    1.6024 H   0  0  0  0  0 15  0  0  0  0  0  0
   19.6982   -3.5199    2.0213 H   0  0  0  0  0 15  0  0  0  0  0  0
   20.4642   -2.3784    4.2268 H   0  0  0  0  0 15  0  0  0  0  0  0
   16.3432   -3.2010    3.3175 H   0  0  0  0  0 15  0  0  0  0  0  0
   19.8872   -2.1979    6.6207 H   0  0  0  0  0 15  0  0  0  0  0  0
   15.7842   -3.0238    5.7030 H   0  0  0  0  0 15  0  0  0  0  0  0
   16.5522   -2.6486    7.7446 H   0  0  0  0  0 15  0  0  0  0  0  0
   19.2153   -1.2150   -1.0038 N   0  0  0  0  0 15  0  0  0  0  0  0
   20.1453   -0.9995   -2.1103 C   0  0  0  0  0 15  0  0  0  0  0  0
   21.1263    0.0760   -1.6993 C   0  0  0  0  0 15  0  0  0  0  0  0
   22.3113   -0.0841   -1.9402 O   0  0  0  0  0 15  0  0  0  0  0  0
   19.4413   -0.5647   -3.4268 C   0  0  0  0  0 15  0  0  0  0  0  0
   18.3953   -1.5849   -3.9758 C   0  0  0  0  0 15  0  0  0  0  0  0
   17.7213   -1.0063   -5.2515 C   0  0  0  0  0 15  0  0  0  0  0  0
   19.0213   -2.9720   -4.2950 C   0  0  0  0  0 15  0  0  0  0  0  0
   20.7153   -1.9249   -2.2932 H   0  0  0  0  0 15  0  0  0  0  0  0
   18.2613   -0.9269   -1.1020 H   0  0  0  0  0 15  0  0  0  0  0  0
   20.2143   -0.4011   -4.1949 H   0  0  0  0  0 15  0  0  0  0  0  0
   18.9383    0.3964   -3.2419 H   0  0  0  0  0 15  0  0  0  0  0  0
   17.5973   -1.7361   -3.2289 H   0  0  0  0  0 15  0  0  0  0  0  0
   17.2453   -0.0368   -5.0299 H   0  0  0  0  0 15  0  0  0  0  0  0
   16.9453   -1.6877   -5.6284 H   0  0  0  0  0 15  0  0  0  0  0  0
   18.4693   -0.8540   -6.0460 H   0  0  0  0  0 15  0  0  0  0  0  0
   19.8833   -2.8552   -4.9714 H   0  0  0  0  0 15  0  0  0  0  0  0
   18.2803   -3.6237   -4.7834 H   0  0  0  0  0 15  0  0  0  0  0  0
   19.3503   -3.4796   -3.3772 H   0  0  0  0  0 15  0  0  0  0  0  0
   20.6934    1.1989   -1.0230 N   0  0  0  0  0 15  0  0  0  0  0  0
   21.6034    2.2657   -0.6085 C   0  0  0  0  0 15  0  0  0  0  0  0
   22.6194    1.7030    0.3570 C   0  0  0  0  0 15  0  0  0  0  0  0
   23.7954    2.0023    0.2163 O   0  0  0  0  0 15  0  0  0  0  0  0
   20.8604    3.4668    0.0403 C   0  0  0  0  0 15  0  0  0  0  0  0
   19.9214    4.1815   -0.9719 C   0  0  0  0  0 15  0  0  0  0  0  0
   19.1544    5.3252   -0.3540 C   0  0  0  0  0 15  0  0  0  0  0  0
   19.3774    5.6411    0.8446 O   0  0  0  0  0 15  0  0  0  0  0  0
   18.3114    5.9224   -1.0739 O   0  0  0  0  0 15  0  0  0  0  0  0
   22.1374    2.6425   -1.4968 H   0  0  0  0  0 15  0  0  0  0  0  0
   19.7224    1.2663   -0.7928 H   0  0  0  0  0 15  0  0  0  0  0  0
   21.6044    4.1948    0.4023 H   0  0  0  0  0 15  0  0  0  0  0  0
   20.2794    3.1086    0.9027 H   0  0  0  0  0 15  0  0  0  0  0  0
   19.1864    3.4750   -1.3855 H   0  0  0  0  0 15  0  0  0  0  0  0
   20.5194    4.5793   -1.8045 H   0  0  0  0  0 15  0  0  0  0  0  0
   22.1715    0.8000    1.3578 N   0  0  0  0  0 15  0  0  0  0  0  0
   23.4195    0.3766    1.9856 C   0  0  0  0  0 15  0  0  0  0  0  0
   23.7405   -1.0581    1.6379 C   0  0  0  0  0 15  0  0  0  0  0  0
   23.0105   -1.7310    0.9172 O   0  0  0  0  0 15  0  0  0  0  0  0
   21.5905    0.1363    0.7345 H   0  0  0  0  0 15  0  0  0  0  0  0
   24.2525    1.0244    1.6581 H   0  0  0  0  0 15  0  0  0  0  0  0
   23.3485    0.4770    3.0843 H   0  0  0  0  0 15  0  0  0  0  0  0
   23.6496   -1.4758    0.5530 N   0  0  0  0  0 15  0  0  0  0  0  0
   24.5816   -2.2800   -0.2345 C   0  0  0  0  0 15  0  0  0  0  0  0
   25.5946   -1.3675   -0.8833 C   0  0  0  0  0 15  0  0  0  0  0  0
   26.7836   -1.6161   -0.7579 O   0  0  0  0  0 15  0  0  0  0  0  0
   23.8836   -3.1088   -1.3494 C   0  0  0  0  0 15  0  0  0  0  0  0
   23.0566   -4.3006   -0.7982 C   0  0  0  0  0 15  0  0  0  0  0  0
   22.1156   -4.9457   -1.7969 C   0  0  0  0  0 15  0  0  0  0  0  0
   21.1416   -5.5309   -1.3447 O   0  0  0  0  0 15  0  0  0  0  0  0
   22.3436   -4.8888   -3.1301 N   0  0  0  0  0 15  0  0  0  0  0  0
   25.1086   -2.9622    0.4553 H   0  0  0  0  0 15  0  0  0  0  0  0
   22.6696   -1.5716    0.3888 H   0  0  0  0  0 15  0  0  0  0  0  0
   24.6616   -3.5090   -2.0162 H   0  0  0  0  0 15  0  0  0  0  0  0
   23.2316   -2.4492   -1.9424 H   0  0  0  0  0 15  0  0  0  0  0  0
   22.4516   -3.9417    0.0453 H   0  0  0  0  0 15  0  0  0  0  0  0
   23.7396   -5.0715   -0.4092 H   0  0  0  0  0 15  0  0  0  0  0  0
   23.1376   -4.4253   -3.5240 H   0  0  0  0  0 15  0  0  0  0  0  0
   21.6946   -5.3293   -3.7527 H   0  0  0  0  0 15  0  0  0  0  0  0
   25.1277   -0.2892   -1.5492 N   0  0  0  0  0 15  0  0  0  0  0  0
   26.0907    0.5791   -2.2176 C   0  0  0  0  0 15  0  0  0  0  0  0
   27.0907    1.0705   -1.1999 C   0  0  0  0  0 15  0  0  0  0  0  0
   28.2807    0.9684   -1.4480 O   0  0  0  0  0 15  0  0  0  0  0  0
   25.4127    1.8005   -2.8947 C   0  0  0  0  0 15  0  0  0  0  0  0
   26.6057   -0.0046   -2.9990 H   0  0  0  0  0 15  0  0  0  0  0  0
   24.1587   -0.0399   -1.5625 H   0  0  0  0  0 15  0  0  0  0  0  0
   24.8937    2.4245   -2.1538 H   0  0  0  0  0 15  0  0  0  0  0  0
   24.6787    1.4560   -3.6406 H   0  0  0  0  0 15  0  0  0  0  0  0
   26.1687    2.4177   -3.4049 H   0  0  0  0  0 15  0  0  0  0  0  0
   26.6058    1.5759   -0.0167 N   0  0  0  0  0 15  0  0  0  0  0  0
   27.5688    2.0839    0.9542 C   0  0  0  0  0 15  0  0  0  0  0  0
   28.5688    0.9965    1.2620 C   0  0  0  0  0 15  0  0  0  0  0  0
   29.7588    1.2586    1.2044 O   0  0  0  0  0 15  0  0  0  0  0  0
   26.8908    2.5394    2.2744 C   0  0  0  0  0 15  0  0  0  0  0  0
   28.0838    2.9545    0.5145 H   0  0  0  0  0 15  0  0  0  0  0  0
   25.6368    1.5458    0.2311 H   0  0  0  0  0 15  0  0  0  0  0  0
   26.3718    1.7017    2.7607 H   0  0  0  0  0 15  0  0  0  0  0  0
   26.1568    3.3337    2.0641 H   0  0  0  0  0 15  0  0  0  0  0  0
   27.6468    2.9351    2.9705 H   0  0  0  0  0 15  0  0  0  0  0  0
   28.0839   -0.2563    1.5550 N   0  0  0  0  0 15  0  0  0  0  0  0
   29.0309   -1.3171    1.8953 C   0  0  0  0  0 15  0  0  0  0  0  0
   30.0009   -1.4828    0.7485 C   0  0  0  0  0 15  0  0  0  0  0  0
   31.1859   -1.6242    1.0013 O   0  0  0  0  0 15  0  0  0  0  0  0
   28.3259   -2.6693    2.1873 C   0  0  0  0  0 15  0  0  0  0  0  0
   27.4389   -2.5845    3.4616 C   0  0  0  0  0 15  0  0  0  0  0  0
   26.5739   -3.8596    3.6498 C   0  0  0  0  0 15  0  0  0  0  0  0
   25.6129   -3.7206    4.8604 C   0  0  0  0  0 15  0  0  0  0  0  0
   24.7499   -4.9144    5.0143 N   0  0  0  0  0 15  0  0  0  0  0  0
   29.5899   -1.0200    2.8000 H   0  0  0  0  0 15  0  0  0  0  0  0
   27.1269   -0.4924    1.3861 H   0  0  0  0  0 15  0  0  0  0  0  0
   29.0849   -3.4563    2.3366 H   0  0  0  0  0 15  0  0  0  0  0  0
   27.7149   -2.9482    1.3147 H   0  0  0  0  0 15  0  0  0  0  0  0
   26.7669   -1.7137    3.3961 H   0  0  0  0  0 15  0  0  0  0  0  0
   28.0789   -2.4408    4.3500 H   0  0  0  0  0 15  0  0  0  0  0  0
   27.2329   -4.7310    3.7982 H   0  0  0  0  0 15  0  0  0  0  0  0
   25.9719   -4.0321    2.7435 H   0  0  0  0  0 15  0  0  0  0  0  0
   24.9769   -2.8330    4.7119 H   0  0  0  0  0 15  0  0  0  0  0  0
   26.2019   -3.5631    5.7812 H   0  0  0  0  0 15  0  0  0  0  0  0
   24.1479   -5.0907    4.1374 H   0  0  0  0  0 15  0  0  0  0  0  0
   24.0649   -4.7967    5.8434 H   0  0  0  0  0 15  0  0  0  0  0  0
   25.3329   -5.8010    5.2067 H   0  0  0  0  0 15  0  0  0  0  0  0
   29.5620   -1.4872   -0.5215 N   0  0  0  0  0 15  0  0  0  0  0  0
   30.4720   -1.6657   -1.6520 C   0  0  0  0  0 15  0  0  0  0  0  0
   31.4880   -0.5482   -1.6514 C   0  0  0  0  0 15  0  0  0  0  0  0
   32.6640   -0.8203   -1.8394 O   0  0  0  0  0 15  0  0  0  0  0  0
   29.7290   -1.7092   -3.0164 C   0  0  0  0  0 15  0  0  0  0  0  0
   28.7900   -2.9436   -3.1250 C   0  0  0  0  0 15  0  0  0  0  0  0
   28.0230   -2.9849   -4.4243 C   0  0  0  0  0 15  0  0  0  0  0  0
   28.2460   -2.1079   -5.3002 O   0  0  0  0  0 15  0  0  0  0  0  0
   27.1800   -3.9075   -4.5782 O   0  0  0  0  0 15  0  0  0  0  0  0
   31.0060   -2.6230   -1.5308 H   0  0  0  0  0 15  0  0  0  0  0  0
   28.5910   -1.3222   -0.6956 H   0  0  0  0  0 15  0  0  0  0  0  0
   30.4730   -1.7625   -3.8277 H   0  0  0  0  0 15  0  0  0  0  0  0
   29.1480   -0.7836   -3.1407 H   0  0  0  0  0 15  0  0  0  0  0  0
   28.0550   -2.9455   -2.3063 H   0  0  0  0  0 15  0  0  0  0  0  0
   29.3880   -3.8632   -3.0499 H   0  0  0  0  0 15  0  0  0  0  0  0
   31.0401    0.7711   -1.3745 N   0  0  0  0  0 15  0  0  0  0  0  0
   31.9501    1.9154   -1.3546 C   0  0  0  0  0 15  0  0  0  0  0  0
   32.9661    1.7213   -0.2541 C   0  0  0  0  0 15  0  0  0  0  0  0
   34.1421    1.9536   -0.4896 O   0  0  0  0  0 15  0  0  0  0  0  0
   31.2071    3.2667   -1.1613 C   0  0  0  0  0 15  0  0  0  0  0  0
   30.2681    3.5872   -2.3583 C   0  0  0  0  0 15  0  0  0  0  0  0
   29.5011    4.8741   -2.1741 C   0  0  0  0  0 15  0  0  0  0  0  0
   29.7241    5.5851   -1.1588 O   0  0  0  0  0 15  0  0  0  0  0  0
   28.6581    5.1854   -3.0562 O   0  0  0  0  0 15  0  0  0  0  0  0
   32.4841    1.9617   -2.3185 H   0  0  0  0  0 15  0  0  0  0  0  0
   30.0691    0.9139   -1.1819 H   0  0  0  0  0 15  0  0  0  0  0  0
   31.9511    4.0750   -1.0734 H   0  0  0  0  0 15  0  0  0  0  0  0
   30.6261    3.2289   -0.2283 H   0  0  0  0  0 15  0  0  0  0  0  0
   29.5331    2.7813   -2.5019 H   0  0  0  0  0 15  0  0  0  0  0  0
   30.8661    3.6724   -3.2771 H   0  0  0  0  0 15  0  0  0  0  0  0
   32.5182    1.2203    0.9973 N   0  0  0  0  0 15  0  0  0  0  0  0
   33.7652    1.0422    1.7362 C   0  0  0  0  0 15  0  0  0  0  0  0
   34.0932   -0.4233    1.8984 C   0  0  0  0  0 15  0  0  0  0  0  0
   33.3482   -1.3302    1.4354 O   0  0  0  0  0 15  0  0  0  0  0  0
   33.6472    1.6934    3.1473 C   0  0  0  0  0 15  0  0  0  0  0  0
   33.3132    3.1923    3.1844 C   0  0  0  0  0 15  0  0  0  0  0  0
   31.9752    3.6012    3.1916 C   0  0  0  0  0 15  0  0  0  0  0  0
   34.3272    4.1518    3.1508 C   0  0  0  0  0 15  0  0  0  0  0  0
   31.6552    4.9547    3.1421 C   0  0  0  0  0 15  0  0  0  0  0  0
   34.0072    5.5049    3.1167 C   0  0  0  0  0 15  0  0  0  0  0  0
   32.6712    5.9078    3.1070 C   0  0  0  0  0 15  0  0  0  0  0  0
   31.9412    0.3814    0.6353 H   0  0  0  0  0 15  0  0  0  0  0  0
   34.5882    1.5173    1.1683 H   0  0  0  0  0 15  0  0  0  0  0  0
   32.8932    1.1415    3.7480 H   0  0  0  0  0 15  0  0  0  0  0  0
   34.5902    1.5306    3.7064 H   0  0  0  0  0 15  0  0  0  0  0  0
   31.1802    2.8666    3.1863 H   0  0  0  0  0 15  0  0  0  0  0  0
   35.3642    3.8461    3.1368 H   0  0  0  0  0 15  0  0  0  0  0  0
   30.6202    5.2592    3.1181 H   0  0  0  0  0 15  0  0  0  0  0  0
   34.7942    6.2458    3.0802 H   0  0  0  0  0 15  0  0  0  0  0  0
   32.4212    6.9562    3.0662 H   0  0  0  0  0 15  0  0  0  0  0  0
   33.9963   -1.1934    1.0293 N   0  0  0  0  0 15  0  0  0  0  0  0
   35.2453   -1.8836    0.7213 C   0  0  0  0  0 15  0  0  0  0  0  0
   35.5583   -1.8051   -0.7533 C   0  0  0  0  0 15  0  0  0  0  0  0
   36.7643   -2.4479   -1.1744 O   0  0  0  0  0 15  0  0  0  0  0  0
   35.2203   -3.3787    1.2398 C   0  0  0  0  0 15  0  0  0  0  0  0
   34.8283   -3.5428    2.7421 C   0  0  0  0  0 15  0  0  0  0  0  0
   36.5723   -4.1236    1.0077 C   0  0  0  0  0 15  0  0  0  0  0  0
   34.4793   -4.9768    3.1948 C   0  0  0  0  0 15  0  0  0  0  0  0
   33.4093   -0.7055    0.2661 H   0  0  0  0  0 15  0  0  0  0  0  0
   36.0603   -1.3493    1.2437 H   0  0  0  0  0 15  0  0  0  0  0  0
   34.4423   -3.9071    0.6453 H   0  0  0  0  0 15  0  0  0  0  0  0
   35.6163   -3.1177    3.3932 H   0  0  0  0  0 15  0  0  0  0  0  0
   33.9313   -2.9317    2.9570 H   0  0  0  0  0 15  0  0  0  0  0  0
   36.5283   -5.1812    1.3212 H   0  0  0  0  0 15  0  0  0  0  0  0
   36.8713   -4.1626   -0.0554 H   0  0  0  0  0 15  0  0  0  0  0  0
   37.4043   -3.6567    1.5663 H   0  0  0  0  0 15  0  0  0  0  0  0
   34.1433   -4.9895    4.2513 H   0  0  0  0  0 15  0  0  0  0  0  0
   33.6633   -5.4095    2.5910 H   0  0  0  0  0 15  0  0  0  0  0  0
   35.3423   -5.6634    3.1284 H   0  0  0  0  0 15  0  0  0  0  0  0
   35.4744   -0.8072   -1.3536 N   0  0  0  0  0 15  0  0  0  0  0  0
   36.4374   -0.2237   -2.2811 C   0  0  0  0  0 15  0  0  0  0  0  0
   37.4374    0.5894   -1.4961 C   0  0  0  0  0 15  0  0  0  0  0  0
   38.6274    0.4077   -1.6936 O   0  0  0  0  0 15  0  0  0  0  0  0
   35.7594    0.6881   -3.3388 C   0  0  0  0  0 15  0  0  0  0  0  0
   36.9524   -1.0417   -2.8123 H   0  0  0  0  0 15  0  0  0  0  0  0
   34.5054   -0.5779   -1.4522 H   0  0  0  0  0 15  0  0  0  0  0  0
   35.2404    1.5298   -2.8595 H   0  0  0  0  0 15  0  0  0  0  0  0
   35.0254    0.1069   -3.9195 H   0  0  0  0  0 15  0  0  0  0  0  0
   36.5154    1.0907   -4.0310 H   0  0  0  0  0 15  0  0  0  0  0  0
   36.9525    1.4729   -0.5608 N   0  0  0  0  0 15  0  0  0  0  0  0
   38.1985    2.0335   -0.0464 C   0  0  0  0  0 15  0  0  0  0  0  0
   38.5535    1.4270    1.2905 C   0  0  0  0  0 15  0  0  0  0  0  0
   37.8465    0.5746    1.8278 O   0  0  0  0  0 15  0  0  0  0  0  0
   38.0405    3.5726    0.1008 C   0  0  0  0  0 15  0  0  0  0  0  0
   37.8695    4.3283   -1.2203 C   0  0  0  0  0 15  0  0  0  0  0  0
   36.6395    4.7259   -1.7885 C   0  0  0  0  0 15  0  0  0  0  0  0
   38.8375    4.6774   -2.1383 C   0  0  0  0  0 15  0  0  0  0  0  0
   36.8195    5.3282   -3.0493 N   0  0  0  0  0 15  0  0  0  0  0  0
   38.1905    5.2831   -3.2449 C   0  0  0  0  0 15  0  0  0  0  0  0
   40.2455    4.4967   -2.1378 C   0  0  0  0  0 15  0  0  0  0  0  0
   38.9485    5.7271   -4.3519 C   0  0  0  0  0 15  0  0  0  0  0  0
   40.9745    4.9507   -3.2351 C   0  0  0  0  0 15  0  0  0  0  0  0
   40.3365    5.5569   -4.3288 C   0  0  0  0  0 15  0  0  0  0  0  0
   36.4355    0.7798   -0.0592 H   0  0  0  0  0 15  0  0  0  0  0  0
   39.0195    1.7972   -0.7489 H   0  0  0  0  0 15  0  0  0  0  0  0
   37.1905    3.8064    0.7724 H   0  0  0  0  0 15  0  0  0  0  0  0
   38.9225    3.9996    0.6176 H   0  0  0  0  0 15  0  0  0  0  0  0
   35.6775    4.5466   -1.3261 H   0  0  0  0  0 15  0  0  0  0  0  0
   36.1015    5.6747   -3.6920 H   0  0  0  0  0 15  0  0  0  0  0  0
   40.7435    4.0215   -1.3051 H   0  0  0  0  0 15  0  0  0  0  0  0
   38.4615    6.1921   -5.1923 H   0  0  0  0  0 15  0  0  0  0  0  0
   42.0475    4.8286   -3.2456 H   0  0  0  0  0 15  0  0  0  0  0  0
   40.9275    5.9019   -5.1638 H   0  0  0  0  0 15  0  0  0  0  0  0
   38.4306    0.2974    1.5477 N   0  0  0  0  0 15  0  0  0  0  0  0
   39.3606   -0.5735    2.2635 C   0  0  0  0  0 15  0  0  0  0  0  0
   40.3416   -1.1409    1.2617 C   0  0  0  0  0 15  0  0  0  0  0  0
   41.5266   -1.1709    1.5493 O   0  0  0  0  0 15  0  0  0  0  0  0
   38.6566   -1.7472    3.0015 C   0  0  0  0  0 15  0  0  0  0  0  0
   37.6106   -1.3103    4.0745 C   0  0  0  0  0 15  0  0  0  0  0  0
   36.9366   -2.5689    4.6895 C   0  0  0  0  0 15  0  0  0  0  0  0
   38.2366   -0.4442    5.2041 C   0  0  0  0  0 15  0  0  0  0  0  0
   39.9306    0.0235    2.9939 H   0  0  0  0  0 15  0  0  0  0  0  0
   37.4766    0.0127    1.4399 H   0  0  0  0  0 15  0  0  0  0  0  0
   39.4296   -2.3625    3.4895 H   0  0  0  0  0 15  0  0  0  0  0  0
   38.1536   -2.3704    2.2468 H   0  0  0  0  0 15  0  0  0  0  0  0
   36.8126   -0.7181    3.5950 H   0  0  0  0  0 15  0  0  0  0  0  0
   36.4606   -3.1751    3.9012 H   0  0  0  0  0 15  0  0  0  0  0  0
   36.1606   -2.2836    5.4141 H   0  0  0  0  0 15  0  0  0  0  0  0
   37.6846   -3.1923    5.2050 H   0  0  0  0  0 15  0  0  0  0  0  0
   39.0986   -0.9651    5.6512 H   0  0  0  0  0 15  0  0  0  0  0  0
   37.4956   -0.2528    5.9957 H   0  0  0  0  0 15  0  0  0  0  0  0
   38.5656    0.5316    4.8198 H   0  0  0  0  0 15  0  0  0  0  0  0
   39.9087   -1.5758    0.0251 N   0  0  0  0  0 15  0  0  0  0  0  0
   41.1547   -1.9192   -0.6554 C   0  0  0  0  0 15  0  0  0  0  0  0
   41.4877   -0.9014   -1.7201 C   0  0  0  0  0 15  0  0  0  0  0  0
   40.7627    0.0764   -1.9435 O   0  0  0  0  0 15  0  0  0  0  0  0
   41.0457   -3.3675   -1.2756 C   0  0  0  0  0 15  0  0  0  0  0  0
   40.8987   -4.4926   -0.2207 C   0  0  0  0  0 15  0  0  0  0  0  0
   42.2177   -3.8147   -2.1947 C   0  0  0  0  0 15  0  0  0  0  0  0
   39.3367   -0.6979   -0.2368 H   0  0  0  0  0 15  0  0  0  0  0  0
   41.9787   -1.8983    0.0815 H   0  0  0  0  0 15  0  0  0  0  0  0
   40.1287   -3.3866   -1.9037 H   0  0  0  0  0 15  0  0  0  0  0  0
   41.8007   -4.5948    0.4096 H   0  0  0  0  0 15  0  0  0  0  0  0
   40.0437   -4.3141    0.4543 H   0  0  0  0  0 15  0  0  0  0  0  0
   40.7147   -5.4762   -0.6942 H   0  0  0  0  0 15  0  0  0  0  0  0
   43.1907   -3.8127   -1.6666 H   0  0  0  0  0 15  0  0  0  0  0  0
   42.0667   -4.8351   -2.5982 H   0  0  0  0  0 15  0  0  0  0  0  0
   42.3277   -3.1674   -3.0842 H   0  0  0  0  0 15  0  0  0  0  0  0
   41.3868    0.2480   -1.5564 N   0  0  0  0  0 15  0  0  0  0  0  0
   42.8028    0.5965   -1.4803 C   0  0  0  0  0 15  0  0  0  0  0  0
   43.0028    1.8839   -0.7150 C   0  0  0  0  0 15  0  0  0  0  0  0
   42.0588    2.5132   -0.2439 O   0  0  0  0  0 15  0  0  0  0  0  0
   43.3718    0.7003   -2.9243 C   0  0  0  0  0 15  0  0  0  0  0  0
   44.9198    0.7927   -3.0280 C   0  0  0  0  0 15  0  0  0  0  0  0
   45.3948    0.9280   -4.4850 C   0  0  0  0  0 15  0  0  0  0  0  0
   46.8858    0.9929   -4.5243 N   0  0  0  0  0 15  0  0  0  0  0  0
   47.6208    1.1169   -5.6242 C   0  0  0  0  0 15  0  0  0  0  0  0
   47.1168    1.2065   -6.8221 N   0  0  0  0  0 15  0  0  0  0  0  0
   48.9098    1.1499   -5.5021 N   0  0  0  0  0 15  0  0  0  0  0  0
   41.0608   -0.5971   -2.0383 H   0  0  0  0  0 15  0  0  0  0  0  0
   43.3238   -0.2059   -0.9254 H   0  0  0  0  0 15  0  0  0  0  0  0
   43.0298   -0.1757   -3.5126 H   0  0  0  0  0 15  0  0  0  0  0  0
   42.9038    1.5726   -3.4286 H   0  0  0  0  0 15  0  0  0  0  0  0
   45.2908    1.6590   -2.4405 H   0  0  0  0  0 15  0  0  0  0  0  0
   45.3718   -0.1048   -2.5559 H   0  0  0  0  0 15  0  0  0  0  0  0
   45.0158    0.0662   -5.0786 H   0  0  0  0  0 15  0  0  0  0  0  0
   44.9458    1.8404   -4.9339 H   0  0  0  0  0 15  0  0  0  0  0  0
   47.4368    0.9351   -3.6615 H   0  0  0  0  0 15  0  0  0  0  0  0
   47.7498    1.3001   -7.6179 H   0  0  0  0  0 15  0  0  0  0  0  0
   46.0948    1.1760   -6.8498 H   0  0  0  0  0 15  0  0  0  0  0  0
   49.2858    1.0764   -4.5556 H   0  0  0  0  0 15  0  0  0  0  0  0
   49.4588    1.2431   -6.3596 H   0  0  0  0  0 15  0  0  0  0  0  0
   42.8649    1.4899    0.5136 N   0  0  0  0  0 15  0  0  0  0  0  0
   44.1129    1.5753    1.2660 C   0  0  0  0  0 15  0  0  0  0  0  0
   44.4339    0.2582    1.9328 C   0  0  0  0  0 15  0  0  0  0  0  0
   43.7039   -0.7215    1.8213 O   0  0  0  0  0 15  0  0  0  0  0  0
   42.2839    0.5804    0.4703 H   0  0  0  0  0 15  0  0  0  0  0  0
   44.9459    1.8555    0.5964 H   0  0  0  0  0 15  0  0  0  0  0  0
   44.0419    2.3649    2.0367 H   0  0  0  0  0 15  0  0  0  0  0  0
   44.3430   -0.7638    1.3786 N   0  0  0  0  0 15  0  0  0  0  0  0
   45.7590   -1.0654    1.1883 C   0  0  0  0  0 15  0  0  0  0  0  0
   45.9590   -2.0148    0.0300 C   0  0  0  0  0 15  0  0  0  0  0  0
   45.0150   -2.4458   -0.6274 O   0  0  0  0  0 15  0  0  0  0  0  0
   46.3280   -1.6552    2.5104 C   0  0  0  0  0 15  0  0  0  0  0  0
   47.8760   -1.7774    2.5764 C   0  0  0  0  0 15  0  0  0  0  0  0
   48.3510   -2.4014    3.9000 C   0  0  0  0  0 15  0  0  0  0  0  0
   49.8420   -2.4758    3.9148 N   0  0  0  0  0 15  0  0  0  0  0  0
   50.5770   -2.9673    4.9065 C   0  0  0  0  0 15  0  0  0  0  0  0
   50.0730   -3.4599    6.0022 N   0  0  0  0  0 15  0  0  0  0  0  0
   51.8660   -2.9568    4.7805 N   0  0  0  0  0 15  0  0  0  0  0  0
   44.0170   -0.1336    2.1198 H   0  0  0  0  0 15  0  0  0  0  0  0
   46.2800   -0.1219    0.9401 H   0  0  0  0  0 15  0  0  0  0  0  0
   45.9860   -1.0324    3.3621 H   0  0  0  0  0 15  0  0  0  0  0  0
   45.8600   -2.6472    2.6871 H   0  0  0  0  0 15  0  0  0  0  0  0
   48.2470   -2.3916    1.7287 H   0  0  0  0  0 15  0  0  0  0  0  0
   48.3280   -0.7728    2.4385 H   0  0  0  0  0 15  0  0  0  0  0  0
   47.9720   -1.7936    4.7518 H   0  0  0  0  0 15  0  0  0  0  0  0
   47.9020   -3.4122    4.0109 H   0  0  0  0  0 15  0  0  0  0  0  0
   50.3930   -2.1273    3.1234 H   0  0  0  0  0 15  0  0  0  0  0  0
   50.7060   -3.8192    6.7183 H   0  0  0  0  0 15  0  0  0  0  0  0
   49.0510   -3.4408    6.0385 H   0  0  0  0  0 15  0  0  0  0  0  0
   52.2420   -2.5650    3.9157 H   0  0  0  0  0 15  0  0  0  0  0  0
   52.4150   -3.3367    5.5549 H   0  0  0  0  0 15  0  0  0  0  0  0
   45.8211   -1.2256   -0.9908 N   0  0  0  0  0 15  0  0  0  0  0  0
   47.0691   -1.0493   -1.7272 C   0  0  0  0  0 15  0  0  0  0  0  0
   47.3901    0.4162   -1.9051 C   0  0  0  0  0 15  0  0  0  0  0  0
   46.6601    1.2992   -1.4662 O   0  0  0  0  0 15  0  0  0  0  0  0
   45.2401   -0.3853   -0.6400 H   0  0  0  0  0 15  0  0  0  0  0  0
   47.9021   -1.5411   -1.1932 H   0  0  0  0  0 15  0  0  0  0  0  0
   46.9981   -1.5289   -2.7209 H   0  0  0  0  0 15  0  0  0  0  0  0
   47.3381    1.1220   -1.1616 O   0  0  0  0  0 15  0  0  0  0  0  0
   48.0291    1.7192   -0.8923 H   0  0  0  0  0 15  0  0  0  0  0  0
M  END
$$$$
