drugbank_target|P83795 Cytochrome b6-f complex subunit 6 (DB04646; DB08453)
 OpenBabel12092120433D

533538  0  0  0  0  0  0  0  0999 V2000
   -0.9080    1.9825   -0.1171 H   0  0  0  0  0 15  0  0  0  0  0  0
    0.0000    1.5760    0.0000 N   0  0  0  0  0 15  0  0  0  0  0  0
    0.9330    2.0387    1.0253 C   0  0  0  0  0 15  0  0  0  0  0  0
    1.9110    0.9285    1.3348 C   0  0  0  0  0 15  0  0  0  0  0  0
    3.0950    1.1967    1.4564 O   0  0  0  0  0 15  0  0  0  0  0  0
    0.2220    2.4363    2.3529 C   0  0  0  0  0 15  0  0  0  0  0  0
   -0.7320    3.6537    2.2001 C   0  0  0  0  0 15  0  0  0  0  0  0
    0.1010    5.1329    1.5261 S   0  0  0  0  0 15  0  0  0  0  0  0
    1.2570    5.5632    2.8680 C   0  0  0  0  0 15  0  0  0  0  0  0
    1.4900    2.9052    0.6314 H   0  0  0  0  0 15  0  0  0  0  0  0
   -0.9770    1.5295    0.2109 H   0  0  0  0  0 15  0  0  0  0  0  0
    0.9810    2.6720    3.1163 H   0  0  0  0  0 15  0  0  0  0  0  0
   -0.3580    1.5738    2.7183 H   0  0  0  0  0 15  0  0  0  0  0  0
   -1.1650    3.9094    3.1809 H   0  0  0  0  0 15  0  0  0  0  0  0
   -1.5630    3.4180    1.5182 H   0  0  0  0  0 15  0  0  0  0  0  0
    0.7290    5.5878    3.8310 H   0  0  0  0  0 15  0  0  0  0  0  0
    1.6720    6.5627    2.6593 H   0  0  0  0  0 15  0  0  0  0  0  0
    2.0800    4.8389    2.9071 H   0  0  0  0  0 15  0  0  0  0  0  0
    1.4781   -0.2728    1.5522 N   0  0  0  0  0 15  0  0  0  0  0  0
    2.7271   -1.0021    1.7504 C   0  0  0  0  0 15  0  0  0  0  0  0
    3.0401   -1.8744    0.5590 C   0  0  0  0  0 15  0  0  0  0  0  0
    4.2461   -2.6386    0.6397 O   0  0  0  0  0 15  0  0  0  0  0  0
    2.7021   -1.8316    3.0980 C   0  0  0  0  0 15  0  0  0  0  0  0
    2.3101   -1.0080    4.3651 C   0  0  0  0  0 15  0  0  0  0  0  0
    4.0541   -2.5553    3.3898 C   0  0  0  0  0 15  0  0  0  0  0  0
    1.9611   -1.8319    5.6231 C   0  0  0  0  0 15  0  0  0  0  0  0
    0.8911   -0.3779    0.6525 H   0  0  0  0  0 15  0  0  0  0  0  0
    3.5421   -0.2578    1.8168 H   0  0  0  0  0 15  0  0  0  0  0  0
    1.9241   -2.6169    2.9721 H   0  0  0  0  0 15  0  0  0  0  0  0
    3.0981   -0.2669    4.6003 H   0  0  0  0  0 15  0  0  0  0  0  0
    1.4131   -0.3989    4.1448 H   0  0  0  0  0 15  0  0  0  0  0  0
    4.0101   -3.1758    4.3017 H   0  0  0  0  0 15  0  0  0  0  0  0
    4.3531   -3.2583    2.5912 H   0  0  0  0  0 15  0  0  0  0  0  0
    4.8861   -1.8403    3.5267 H   0  0  0  0  0 15  0  0  0  0  0  0
    1.6251   -1.1732    6.4492 H   0  0  0  0  0 15  0  0  0  0  0  0
    1.1451   -2.5491    5.4294 H   0  0  0  0  0 15  0  0  0  0  0  0
    2.8241   -2.4055    6.0062 H   0  0  0  0  0 15  0  0  0  0  0  0
    2.9562   -1.4816   -0.5373 N   0  0  0  0  0 15  0  0  0  0  0  0
    3.8862   -1.6503   -1.6519 C   0  0  0  0  0 15  0  0  0  0  0  0
    4.8672   -0.4993   -1.6261 C   0  0  0  0  0 15  0  0  0  0  0  0
    6.0522   -0.7310   -1.7992 O   0  0  0  0  0 15  0  0  0  0  0  0
    3.1822   -1.6830   -3.0380 C   0  0  0  0  0 15  0  0  0  0  0  0
    2.1362   -2.8283   -3.2123 C   0  0  0  0  0 15  0  0  0  0  0  0
    1.4622   -2.7119   -4.6083 C   0  0  0  0  0 15  0  0  0  0  0  0
    2.7622   -4.2421   -3.0470 C   0  0  0  0  0 15  0  0  0  0  0  0
    4.4562   -2.5834   -1.5133 H   0  0  0  0  0 15  0  0  0  0  0  0
    2.0022   -1.2433   -0.7266 H   0  0  0  0  0 15  0  0  0  0  0  0
    3.9552   -1.7869   -3.8164 H   0  0  0  0  0 15  0  0  0  0  0  0
    2.6792   -0.7156   -3.1866 H   0  0  0  0  0 15  0  0  0  0  0  0
    1.3382   -2.7198   -2.4581 H   0  0  0  0  0 15  0  0  0  0  0  0
    0.9862   -1.7243   -4.7252 H   0  0  0  0  0 15  0  0  0  0  0  0
    0.6862   -3.4803   -4.7344 H   0  0  0  0  0 15  0  0  0  0  0  0
    2.2102   -2.8354   -5.4078 H   0  0  0  0  0 15  0  0  0  0  0  0
    3.6242   -4.3593   -3.7234 H   0  0  0  0  0 15  0  0  0  0  0  0
    2.0212   -5.0200   -3.2881 H   0  0  0  0  0 15  0  0  0  0  0  0
    3.0912   -4.4118   -2.0121 H   0  0  0  0  0 15  0  0  0  0  0  0
    4.4343    0.7856   -1.3662 N   0  0  0  0  0 15  0  0  0  0  0  0
    5.6823    1.5406   -1.3081 C   0  0  0  0  0 15  0  0  0  0  0  0
    6.0033    1.9468    0.1112 C   0  0  0  0  0 15  0  0  0  0  0  0
    5.2733    1.6524    1.0522 O   0  0  0  0  0 15  0  0  0  0  0  0
    3.8533    0.5714   -0.4812 H   0  0  0  0  0 15  0  0  0  0  0  0
    6.5153    0.9358   -1.7096 H   0  0  0  0  0 15  0  0  0  0  0  0
    5.6113    2.4464   -1.9380 H   0  0  0  0  0 15  0  0  0  0  0  0
    5.9124    1.2097    1.0102 N   0  0  0  0  0 15  0  0  0  0  0  0
    6.8754    0.9659    2.0785 C   0  0  0  0  0 15  0  0  0  0  0  0
    7.8754   -0.0611    1.6068 C   0  0  0  0  0 15  0  0  0  0  0  0
    9.0654    0.1757    1.7331 O   0  0  0  0  0 15  0  0  0  0  0  0
    6.1974    0.4555    3.3784 C   0  0  0  0  0 15  0  0  0  0  0  0
    7.3904    1.9136    2.3091 H   0  0  0  0  0 15  0  0  0  0  0  0
    4.9434    1.0259    1.1792 H   0  0  0  0  0 15  0  0  0  0  0  0
    5.6784   -0.4974    3.2046 H   0  0  0  0  0 15  0  0  0  0  0  0
    5.4634    1.1962    3.7341 H   0  0  0  0  0 15  0  0  0  0  0  0
    6.9534    0.3047    4.1649 H   0  0  0  0  0 15  0  0  0  0  0  0
    7.3905   -1.2043    1.0166 N   0  0  0  0  0 15  0  0  0  0  0  0
    8.6365   -1.9008    0.7070 C   0  0  0  0  0 15  0  0  0  0  0  0
    8.9695   -1.7865   -0.7615 C   0  0  0  0  0 15  0  0  0  0  0  0
    8.2445   -1.1707   -1.5532 O   0  0  0  0  0 15  0  0  0  0  0  0
    8.5275   -3.4147    1.1433 C   0  0  0  0  0 15  0  0  0  0  0  0
    8.3805   -3.6183    2.6720 C   0  0  0  0  0 15  0  0  0  0  0  0
    9.6995   -4.3426    0.7145 C   0  0  0  0  0 15  0  0  0  0  0  0
    6.8185   -0.6903    0.2583 H   0  0  0  0  0 15  0  0  0  0  0  0
    9.4605   -1.4183    1.2643 H   0  0  0  0  0 15  0  0  0  0  0  0
    7.6105   -3.8270    0.6691 H   0  0  0  0  0 15  0  0  0  0  0  0
    9.2825   -3.2986    3.2248 H   0  0  0  0  0 15  0  0  0  0  0  0
    7.5255   -3.0530    3.0818 H   0  0  0  0  0 15  0  0  0  0  0  0
    8.1965   -4.6795    2.9278 H   0  0  0  0  0 15  0  0  0  0  0  0
   10.6725   -4.0068    1.1222 H   0  0  0  0  0 15  0  0  0  0  0  0
    9.5485   -5.3881    1.0478 H   0  0  0  0  0 15  0  0  0  0  0  0
    9.8095   -4.4043   -0.3838 H   0  0  0  0  0 15  0  0  0  0  0  0
    8.8686   -0.7928   -1.3621 N   0  0  0  0  0 15  0  0  0  0  0  0
   10.1156   -0.3668   -1.9915 C   0  0  0  0  0 15  0  0  0  0  0  0
   10.4436    1.0624   -1.6292 C   0  0  0  0  0 15  0  0  0  0  0  0
    9.6986    1.7493   -0.8774 O   0  0  0  0  0 15  0  0  0  0  0  0
    9.9976   -0.4815   -3.5414 C   0  0  0  0  0 15  0  0  0  0  0  0
    9.6636   -1.8720   -4.1020 C   0  0  0  0  0 15  0  0  0  0  0  0
    8.3256   -2.2525   -4.2523 C   0  0  0  0  0 15  0  0  0  0  0  0
   10.6776   -2.7824   -4.4072 C   0  0  0  0  0 15  0  0  0  0  0  0
    8.0056   -3.5372   -4.6808 C   0  0  0  0  0 15  0  0  0  0  0  0
   10.3576   -4.0614   -4.8501 C   0  0  0  0  0 15  0  0  0  0  0  0
    9.0216   -4.4421   -4.9823 C   0  0  0  0  0 15  0  0  0  0  0  0
    8.2916   -0.1342   -0.7287 H   0  0  0  0  0 15  0  0  0  0  0  0
   10.9386   -1.0109   -1.6264 H   0  0  0  0  0 15  0  0  0  0  0  0
    9.2436    0.2461   -3.9103 H   0  0  0  0  0 15  0  0  0  0  0  0
   10.9406   -0.1328   -4.0078 H   0  0  0  0  0 15  0  0  0  0  0  0
    7.5306   -1.5664   -3.9895 H   0  0  0  0  0 15  0  0  0  0  0  0
   11.7146   -2.5010   -4.2868 H   0  0  0  0  0 15  0  0  0  0  0  0
    6.9706   -3.8308   -4.7651 H   0  0  0  0  0 15  0  0  0  0  0  0
   11.1446   -4.7680   -5.0758 H   0  0  0  0  0 15  0  0  0  0  0  0
    8.7716   -5.4381   -5.3120 H   0  0  0  0  0 15  0  0  0  0  0  0
   10.3467    1.4787   -0.5451 N   0  0  0  0  0 15  0  0  0  0  0  0
   11.5767    2.0659   -0.0211 C   0  0  0  0  0 15  0  0  0  0  0  0
   11.9847    1.4000    1.2727 C   0  0  0  0  0 15  0  0  0  0  0  0
   11.3277    0.4864    1.7714 O   0  0  0  0  0 15  0  0  0  0  0  0
   11.3897    3.5857    0.2579 C   0  0  0  0  0 15  0  0  0  0  0  0
   11.0537    4.4713   -0.9446 C   0  0  0  0  0 15  0  0  0  0  0  0
   12.0507    4.8599   -1.8470 C   0  0  0  0  0 15  0  0  0  0  0  0
    9.7357    4.8882   -1.1558 C   0  0  0  0  0 15  0  0  0  0  0  0
   11.7297    5.6531   -2.9445 C   0  0  0  0  0 15  0  0  0  0  0  0
    9.4167    5.6792   -2.2564 C   0  0  0  0  0 15  0  0  0  0  0  0
   10.4147    6.0607   -3.1490 C   0  0  0  0  0 15  0  0  0  0  0  0
   10.1027    6.8358   -4.2306 O   0  0  0  0  0 15  0  0  0  0  0  0
    9.8347    0.6750   -0.0373 H   0  0  0  0  0 15  0  0  0  0  0  0
   12.3887    1.9104   -0.7546 H   0  0  0  0  0 15  0  0  0  0  0  0
   10.6187    3.7229    1.0456 H   0  0  0  0  0 15  0  0  0  0  0  0
   12.3077    3.9936    0.7259 H   0  0  0  0  0 15  0  0  0  0  0  0
   13.0737    4.5439   -1.6958 H   0  0  0  0  0 15  0  0  0  0  0  0
    8.9527    4.5860   -0.4703 H   0  0  0  0  0 15  0  0  0  0  0  0
   12.4967    5.9502   -3.6415 H   0  0  0  0  0 15  0  0  0  0  0  0
    8.3937    5.9893   -2.4074 H   0  0  0  0  0 15  0  0  0  0  0  0
    9.1617    7.0195   -4.2095 H   0  0  0  0  0 15  0  0  0  0  0  0
   11.8248    0.2810    1.5507 N   0  0  0  0  0 15  0  0  0  0  0  0
   13.0738   -0.3348    1.9890 C   0  0  0  0  0 15  0  0  0  0  0  0
   13.3868   -1.5653    1.1729 C   0  0  0  0  0 15  0  0  0  0  0  0
   14.5928   -2.2544    1.5129 O   0  0  0  0  0 15  0  0  0  0  0  0
   13.0488   -0.6470    3.5404 C   0  0  0  0  0 15  0  0  0  0  0  0
   12.6568    0.5641    4.4443 C   0  0  0  0  0 15  0  0  0  0  0  0
   14.4008   -1.2251    4.0644 C   0  0  0  0  0 15  0  0  0  0  0  0
   12.3078    0.2261    5.9097 C   0  0  0  0  0 15  0  0  0  0  0  0
   11.2378   -0.1289    0.7429 H   0  0  0  0  0 15  0  0  0  0  0  0
   13.8888    0.3866    1.7938 H   0  0  0  0  0 15  0  0  0  0  0  0
   12.2708   -1.4274    3.6938 H   0  0  0  0  0 15  0  0  0  0  0  0
   13.4448    1.3408    4.4086 H   0  0  0  0  0 15  0  0  0  0  0  0
   11.7598    1.0594    4.0270 H   0  0  0  0  0 15  0  0  0  0  0  0
   14.3568   -1.4918    5.1347 H   0  0  0  0  0 15  0  0  0  0  0  0
   14.6998   -2.1609    3.5583 H   0  0  0  0  0 15  0  0  0  0  0  0
   15.2328   -0.5068    3.9456 H   0  0  0  0  0 15  0  0  0  0  0  0
   11.9718    1.1300    6.4569 H   0  0  0  0  0 15  0  0  0  0  0  0
   11.4918   -0.5137    5.9760 H   0  0  0  0  0 15  0  0  0  0  0  0
   13.1708   -0.1795    6.4675 H   0  0  0  0  0 15  0  0  0  0  0  0
   13.3029   -1.5760    0.0084 N   0  0  0  0  0 15  0  0  0  0  0  0
   14.5489   -1.9121   -0.6757 C   0  0  0  0  0 15  0  0  0  0  0  0
   14.8819   -0.8831   -1.7296 C   0  0  0  0  0 15  0  0  0  0  0  0
   14.1569    0.0970   -1.9426 O   0  0  0  0  0 15  0  0  0  0  0  0
   14.4399   -3.3538   -1.3112 C   0  0  0  0  0 15  0  0  0  0  0  0
   14.2929   -4.4900   -0.2684 C   0  0  0  0  0 15  0  0  0  0  0  0
   15.6119   -3.7912   -2.2351 C   0  0  0  0  0 15  0  0  0  0  0  0
   12.7309   -0.6954   -0.2442 H   0  0  0  0  0 15  0  0  0  0  0  0
   15.3729   -1.8990    0.0614 H   0  0  0  0  0 15  0  0  0  0  0  0
   13.5229   -3.3663   -1.9395 H   0  0  0  0  0 15  0  0  0  0  0  0
   15.1949   -4.5989    0.3608 H   0  0  0  0  0 15  0  0  0  0  0  0
   13.4379   -4.3187    0.4085 H   0  0  0  0  0 15  0  0  0  0  0  0
   14.1089   -5.4685   -0.7522 H   0  0  0  0  0 15  0  0  0  0  0  0
   16.5849   -3.7948   -1.7069 H   0  0  0  0  0 15  0  0  0  0  0  0
   15.4609   -4.8073   -2.6494 H   0  0  0  0  0 15  0  0  0  0  0  0
   15.7219   -3.1346   -3.1177 H   0  0  0  0  0 15  0  0  0  0  0  0
   14.7810    0.2645   -1.5536 N   0  0  0  0  0 15  0  0  0  0  0  0
   16.0280    0.9950   -1.7637 C   0  0  0  0  0 15  0  0  0  0  0  0
   16.3560    1.8598   -0.5695 C   0  0  0  0  0 15  0  0  0  0  0  0
   15.6110    1.9051    0.4478 O   0  0  0  0  0 15  0  0  0  0  0  0
   15.9100    1.9004   -3.0269 C   0  0  0  0  0 15  0  0  0  0  0  0
   15.5760    1.1924   -4.3485 C   0  0  0  0  0 15  0  0  0  0  0  0
   14.2380    0.9967   -4.7076 C   0  0  0  0  0 15  0  0  0  0  0  0
   16.5900    0.6893   -5.1662 C   0  0  0  0  0 15  0  0  0  0  0  0
   13.9180    0.2853   -5.8601 C   0  0  0  0  0 15  0  0  0  0  0  0
   16.2700   -0.0086   -6.3260 C   0  0  0  0  0 15  0  0  0  0  0  0
   14.9340   -0.2160   -6.6715 C   0  0  0  0  0 15  0  0  0  0  0  0
   14.2040    0.3641   -0.6454 H   0  0  0  0  0 15  0  0  0  0  0  0
   16.8510    0.2665   -1.8964 H   0  0  0  0  0 15  0  0  0  0  0  0
   15.1560    2.6953   -2.8436 H   0  0  0  0  0 15  0  0  0  0  0  0
   16.8530    2.4670   -3.1614 H   0  0  0  0  0 15  0  0  0  0  0  0
   13.4430    1.3549   -4.0662 H   0  0  0  0  0 15  0  0  0  0  0  0
   17.6270    0.8281   -4.8934 H   0  0  0  0  0 15  0  0  0  0  0  0
   12.8830    0.1140   -6.1129 H   0  0  0  0  0 15  0  0  0  0  0  0
   17.0570   -0.4062   -6.9521 H   0  0  0  0  0 15  0  0  0  0  0  0
   14.6840   -0.7692   -7.5630 H   0  0  0  0  0 15  0  0  0  0  0  0
   16.2591    1.4844    0.5294 N   0  0  0  0  0 15  0  0  0  0  0  0
   17.5081    1.5574    1.2817 C   0  0  0  0  0 15  0  0  0  0  0  0
   17.8211    0.2365    1.9416 C   0  0  0  0  0 15  0  0  0  0  0  0
   19.0271    0.1878    2.7085 O   0  0  0  0  0 15  0  0  0  0  0  0
   17.4831    2.7467    2.3256 C   0  0  0  0  0 15  0  0  0  0  0  0
   17.0911    4.1340    1.7264 C   0  0  0  0  0 15  0  0  0  0  0  0
   18.8351    2.9128    3.0880 C   0  0  0  0  0 15  0  0  0  0  0  0
   16.7421    5.2359    2.7497 C   0  0  0  0  0 15  0  0  0  0  0  0
   15.6721    0.5798    0.4820 H   0  0  0  0  0 15  0  0  0  0  0  0
   18.3231    1.7478    0.5591 H   0  0  0  0  0 15  0  0  0  0  0  0
   16.7051    2.4907    3.0787 H   0  0  0  0  0 15  0  0  0  0  0  0
   17.8791    4.4902    1.0352 H   0  0  0  0  0 15  0  0  0  0  0  0
   16.1941    4.0191    1.0889 H   0  0  0  0  0 15  0  0  0  0  0  0
   18.7911    3.7077    3.8527 H   0  0  0  0  0 15  0  0  0  0  0  0
   19.1341    2.0076    3.6469 H   0  0  0  0  0 15  0  0  0  0  0  0
   19.6671    3.1678    2.4061 H   0  0  0  0  0 15  0  0  0  0  0  0
   16.4061    6.1608    2.2390 H   0  0  0  0  0 15  0  0  0  0  0  0
   15.9261    4.9245    3.4242 H   0  0  0  0  0 15  0  0  0  0  0  0
   17.6051    5.5172    3.3795 H   0  0  0  0  0 15  0  0  0  0  0  0
   17.7372   -0.7783    1.3704 N   0  0  0  0  0 15  0  0  0  0  0  0
   18.7002   -1.8730    1.3210 C   0  0  0  0  0 15  0  0  0  0  0  0
   19.7002   -1.5920    0.2264 C   0  0  0  0  0 15  0  0  0  0  0  0
   20.8902   -1.6740    0.4819 O   0  0  0  0  0 15  0  0  0  0  0  0
   18.0222   -3.2431    1.0506 C   0  0  0  0  0 15  0  0  0  0  0  0
   19.2152   -1.9309    2.2947 H   0  0  0  0  0 15  0  0  0  0  0  0
   16.7682   -0.9774    1.2197 H   0  0  0  0  0 15  0  0  0  0  0  0
   17.5032   -3.2420    0.0819 H   0  0  0  0  0 15  0  0  0  0  0  0
   17.2882   -3.4610    1.8428 H   0  0  0  0  0 15  0  0  0  0  0  0
   18.7782   -4.0438    1.0423 H   0  0  0  0  0 15  0  0  0  0  0  0
   19.2153   -1.2150   -1.0038 N   0  0  0  0  0 15  0  0  0  0  0  0
   20.1453   -0.9995   -2.1103 C   0  0  0  0  0 15  0  0  0  0  0  0
   21.1263    0.0760   -1.6993 C   0  0  0  0  0 15  0  0  0  0  0  0
   22.3113   -0.0841   -1.9402 O   0  0  0  0  0 15  0  0  0  0  0  0
   19.4413   -0.5647   -3.4268 C   0  0  0  0  0 15  0  0  0  0  0  0
   18.3953   -1.5849   -3.9758 C   0  0  0  0  0 15  0  0  0  0  0  0
   17.7213   -1.0063   -5.2515 C   0  0  0  0  0 15  0  0  0  0  0  0
   19.0213   -2.9720   -4.2950 C   0  0  0  0  0 15  0  0  0  0  0  0
   20.7153   -1.9249   -2.2932 H   0  0  0  0  0 15  0  0  0  0  0  0
   18.2613   -0.9269   -1.1020 H   0  0  0  0  0 15  0  0  0  0  0  0
   20.2143   -0.4011   -4.1949 H   0  0  0  0  0 15  0  0  0  0  0  0
   18.9383    0.3964   -3.2419 H   0  0  0  0  0 15  0  0  0  0  0  0
   17.5973   -1.7361   -3.2289 H   0  0  0  0  0 15  0  0  0  0  0  0
   17.2453   -0.0368   -5.0299 H   0  0  0  0  0 15  0  0  0  0  0  0
   16.9453   -1.6877   -5.6284 H   0  0  0  0  0 15  0  0  0  0  0  0
   18.4693   -0.8540   -6.0460 H   0  0  0  0  0 15  0  0  0  0  0  0
   19.8833   -2.8552   -4.9714 H   0  0  0  0  0 15  0  0  0  0  0  0
   18.2803   -3.6237   -4.7834 H   0  0  0  0  0 15  0  0  0  0  0  0
   19.3503   -3.4796   -3.3772 H   0  0  0  0  0 15  0  0  0  0  0  0
   20.6934    1.1989   -1.0230 N   0  0  0  0  0 15  0  0  0  0  0  0
   21.9404    1.8942   -0.7160 C   0  0  0  0  0 15  0  0  0  0  0  0
   22.2684    1.7925    0.7549 C   0  0  0  0  0 15  0  0  0  0  0  0
   21.5234    1.1753    1.5648 O   0  0  0  0  0 15  0  0  0  0  0  0
   21.8224    3.3988   -1.1052 C   0  0  0  0  0 15  0  0  0  0  0  0
   21.4884    3.7025   -2.5734 C   0  0  0  0  0 15  0  0  0  0  0  0
   20.1504    3.7825   -2.9745 C   0  0  0  0  0 15  0  0  0  0  0  0
   22.5024    3.8405   -3.5235 C   0  0  0  0  0 15  0  0  0  0  0  0
   19.8304    3.9751   -4.3151 C   0  0  0  0  0 15  0  0  0  0  0  0
   22.1824    4.0482   -4.8611 C   0  0  0  0  0 15  0  0  0  0  0  0
   20.8464    4.1105   -5.2592 C   0  0  0  0  0 15  0  0  0  0  0  0
   20.1164    0.6931   -0.2620 H   0  0  0  0  0 15  0  0  0  0  0  0
   22.7634    1.4201   -1.2847 H   0  0  0  0  0 15  0  0  0  0  0  0
   21.0684    3.8915   -0.4550 H   0  0  0  0  0 15  0  0  0  0  0  0
   22.7654    3.9199   -0.8453 H   0  0  0  0  0 15  0  0  0  0  0  0
   19.3554    3.6463   -2.2526 H   0  0  0  0  0 15  0  0  0  0  0  0
   23.5394    3.7722   -3.2252 H   0  0  0  0  0 15  0  0  0  0  0  0
   18.7954    4.0057   -4.6190 H   0  0  0  0  0 15  0  0  0  0  0  0
   22.9694    4.1444   -5.5965 H   0  0  0  0  0 15  0  0  0  0  0  0
   20.5964    4.2573   -6.2981 H   0  0  0  0  0 15  0  0  0  0  0  0
   22.1715    0.8000    1.3578 N   0  0  0  0  0 15  0  0  0  0  0  0
   23.4185    0.3773    1.9895 C   0  0  0  0  0 15  0  0  0  0  0  0
   23.7465   -1.0538    1.6348 C   0  0  0  0  0 15  0  0  0  0  0  0
   23.0015   -1.7446    0.8867 O   0  0  0  0  0 15  0  0  0  0  0  0
   23.3005    0.5003    3.5388 C   0  0  0  0  0 15  0  0  0  0  0  0
   22.9665    1.8937    4.0920 C   0  0  0  0  0 15  0  0  0  0  0  0
   21.6285    2.2750    4.2403 C   0  0  0  0  0 15  0  0  0  0  0  0
   23.9805    2.8057    4.3924 C   0  0  0  0  0 15  0  0  0  0  0  0
   21.3085    3.5620    4.6620 C   0  0  0  0  0 15  0  0  0  0  0  0
   23.6605    4.0871    4.8284 C   0  0  0  0  0 15  0  0  0  0  0  0
   22.3245    4.4684    4.9587 C   0  0  0  0  0 15  0  0  0  0  0  0
   21.5945    0.1381    0.7280 H   0  0  0  0  0 15  0  0  0  0  0  0
   24.2415    1.0196    1.6210 H   0  0  0  0  0 15  0  0  0  0  0  0
   22.5465   -0.2254    3.9115 H   0  0  0  0  0 15  0  0  0  0  0  0
   24.2435    0.1541    4.0070 H   0  0  0  0  0 15  0  0  0  0  0  0
   20.8335    1.5875    3.9812 H   0  0  0  0  0 15  0  0  0  0  0  0
   25.0175    2.5237    4.2735 H   0  0  0  0  0 15  0  0  0  0  0  0
   20.2735    3.8560    4.7447 H   0  0  0  0  0 15  0  0  0  0  0  0
   24.4475    4.7948    5.0505 H   0  0  0  0  0 15  0  0  0  0  0  0
   22.0745    5.4662    5.2831 H   0  0  0  0  0 15  0  0  0  0  0  0
   23.6496   -1.4758    0.5530 N   0  0  0  0  0 15  0  0  0  0  0  0
   24.8976   -2.0208    0.0273 C   0  0  0  0  0 15  0  0  0  0  0  0
   25.2186   -1.4301   -1.3256 C   0  0  0  0  0 15  0  0  0  0  0  0
   24.4886   -0.6037   -1.8636 O   0  0  0  0  0 15  0  0  0  0  0  0
   23.0686   -0.7470    0.0071 H   0  0  0  0  0 15  0  0  0  0  0  0
   25.7306   -1.8103    0.7220 H   0  0  0  0  0 15  0  0  0  0  0  0
   24.8266   -3.1203   -0.0640 H   0  0  0  0  0 15  0  0  0  0  0  0
   25.1277   -0.2892   -1.5492 N   0  0  0  0  0 15  0  0  0  0  0  0
   26.3767    0.3242   -1.9908 C   0  0  0  0  0 15  0  0  0  0  0  0
   26.6897    1.5591   -1.1812 C   0  0  0  0  0 15  0  0  0  0  0  0
   27.8957    2.2464   -1.5248 O   0  0  0  0  0 15  0  0  0  0  0  0
   26.3517    0.6282   -3.5437 C   0  0  0  0  0 15  0  0  0  0  0  0
   25.9597   -0.5876   -4.4413 C   0  0  0  0  0 15  0  0  0  0  0  0
   27.7037    1.2035   -4.0708 C   0  0  0  0  0 15  0  0  0  0  0  0
   25.6107   -0.2575   -5.9084 C   0  0  0  0  0 15  0  0  0  0  0  0
   24.5407    0.1249   -0.7436 H   0  0  0  0  0 15  0  0  0  0  0  0
   27.1917   -0.3961   -1.7917 H   0  0  0  0  0 15  0  0  0  0  0  0
   25.5737    1.4078   -3.7013 H   0  0  0  0  0 15  0  0  0  0  0  0
   26.7477   -1.3642   -4.4014 H   0  0  0  0  0 15  0  0  0  0  0  0
   25.0627   -1.0807   -4.0213 H   0  0  0  0  0 15  0  0  0  0  0  0
   27.6597    1.4646   -5.1425 H   0  0  0  0  0 15  0  0  0  0  0  0
   28.0027    2.1420   -3.5697 H   0  0  0  0  0 15  0  0  0  0  0  0
   28.5357    0.4859   -3.9482 H   0  0  0  0  0 15  0  0  0  0  0  0
   25.2747   -1.1642   -6.4508 H   0  0  0  0  0 15  0  0  0  0  0  0
   24.7947    0.4820   -5.9786 H   0  0  0  0  0 15  0  0  0  0  0  0
   26.4737    0.1452   -6.4684 H   0  0  0  0  0 15  0  0  0  0  0  0
   26.6058    1.5759   -0.0167 N   0  0  0  0  0 15  0  0  0  0  0  0
   27.5688    2.0839    0.9542 C   0  0  0  0  0 15  0  0  0  0  0  0
   28.5688    0.9965    1.2620 C   0  0  0  0  0 15  0  0  0  0  0  0
   29.7588    1.2586    1.2044 O   0  0  0  0  0 15  0  0  0  0  0  0
   26.8908    2.5394    2.2744 C   0  0  0  0  0 15  0  0  0  0  0  0
   28.0838    2.9545    0.5145 H   0  0  0  0  0 15  0  0  0  0  0  0
   25.6368    1.5458    0.2311 H   0  0  0  0  0 15  0  0  0  0  0  0
   26.3718    1.7017    2.7607 H   0  0  0  0  0 15  0  0  0  0  0  0
   26.1568    3.3337    2.0641 H   0  0  0  0  0 15  0  0  0  0  0  0
   27.6468    2.9351    2.9705 H   0  0  0  0  0 15  0  0  0  0  0  0
   28.0839   -0.2563    1.5550 N   0  0  0  0  0 15  0  0  0  0  0  0
   29.3299   -0.9871    1.7716 C   0  0  0  0  0 15  0  0  0  0  0  0
   29.6629   -1.8533    0.5803 C   0  0  0  0  0 15  0  0  0  0  0  0
   28.9379   -1.8987   -0.4217 O   0  0  0  0  0 15  0  0  0  0  0  0
   29.2209   -1.8555    3.0861 C   0  0  0  0  0 15  0  0  0  0  0  0
   29.0739   -1.0182    4.3813 C   0  0  0  0  0 15  0  0  0  0  0  0
   30.3929   -2.8397    3.3623 C   0  0  0  0  0 15  0  0  0  0  0  0
   27.5119   -0.3574    0.6445 H   0  0  0  0  0 15  0  0  0  0  0  0
   30.1539   -0.2582    1.8824 H   0  0  0  0  0 15  0  0  0  0  0  0
   28.3039   -2.4770    2.9930 H   0  0  0  0  0 15  0  0  0  0  0  0
   29.9759   -0.4162    4.5942 H   0  0  0  0  0 15  0  0  0  0  0  0
   28.2189   -0.3222    4.3260 H   0  0  0  0  0 15  0  0  0  0  0  0
   28.8899   -1.6594    5.2647 H   0  0  0  0  0 15  0  0  0  0  0  0
   31.3659   -2.3196    3.4544 H   0  0  0  0  0 15  0  0  0  0  0  0
   30.2419   -3.4186    4.2944 H   0  0  0  0  0 15  0  0  0  0  0  0
   30.5029   -3.5995    2.5668 H   0  0  0  0  0 15  0  0  0  0  0  0
   29.5620   -1.4872   -0.5215 N   0  0  0  0  0 15  0  0  0  0  0  0
   30.8100   -1.5686   -1.2744 C   0  0  0  0  0 15  0  0  0  0  0  0
   31.1310   -0.2480   -1.9342 C   0  0  0  0  0 15  0  0  0  0  0  0
   30.4010    0.7312   -1.8174 O   0  0  0  0  0 15  0  0  0  0  0  0
   28.9810   -0.5779   -0.4733 H   0  0  0  0  0 15  0  0  0  0  0  0
   31.6430   -1.8523   -0.6062 H   0  0  0  0  0 15  0  0  0  0  0  0
   30.7390   -2.3540   -2.0492 H   0  0  0  0  0 15  0  0  0  0  0  0
   31.0401    0.7711   -1.3745 N   0  0  0  0  0 15  0  0  0  0  0  0
   32.2891    1.5249   -1.3202 C   0  0  0  0  0 15  0  0  0  0  0  0
   32.6021    1.9538    0.0927 C   0  0  0  0  0 15  0  0  0  0  0  0
   33.8081    2.7016    0.2695 O   0  0  0  0  0 15  0  0  0  0  0  0
   32.2641    2.7537   -2.3174 C   0  0  0  0  0 15  0  0  0  0  0  0
   31.8721    2.3957   -3.7856 C   0  0  0  0  0 15  0  0  0  0  0  0
   33.6161    3.5331   -2.3532 C   0  0  0  0  0 15  0  0  0  0  0  0
   31.5231    3.5895   -4.7001 C   0  0  0  0  0 15  0  0  0  0  0  0
   30.4531    0.5725   -0.4907 H   0  0  0  0  0 15  0  0  0  0  0  0
   33.1041    0.8445   -1.6291 H   0  0  0  0  0 15  0  0  0  0  0  0
   31.4861    3.4530   -1.9386 H   0  0  0  0  0 15  0  0  0  0  0  0
   32.6601    1.7742   -4.2528 H   0  0  0  0  0 15  0  0  0  0  0  0
   30.9751    1.7480   -3.7793 H   0  0  0  0  0 15  0  0  0  0  0  0
   33.5721    4.4204   -3.0084 H   0  0  0  0  0 15  0  0  0  0  0  0
   33.9151    3.9322   -1.3670 H   0  0  0  0  0 15  0  0  0  0  0  0
   34.4481    2.9037   -2.7190 H   0  0  0  0  0 15  0  0  0  0  0  0
   31.1871    3.2412   -5.6976 H   0  0  0  0  0 15  0  0  0  0  0  0
   30.7071    4.2021   -4.2800 H   0  0  0  0  0 15  0  0  0  0  0  0
   32.3861    4.2576   -4.8718 H   0  0  0  0  0 15  0  0  0  0  0  0
   32.5182    1.2203    0.9973 N   0  0  0  0  0 15  0  0  0  0  0  0
   33.7672    1.0364    1.7304 C   0  0  0  0  0 15  0  0  0  0  0  0
   34.0802   -0.4295    1.9083 C   0  0  0  0  0 15  0  0  0  0  0  0
   35.2862   -0.7330    2.6142 O   0  0  0  0  0 15  0  0  0  0  0  0
   33.7422    1.8058    3.1132 C   0  0  0  0  0 15  0  0  0  0  0  0
   33.3502    3.3139    3.0147 C   0  0  0  0  0 15  0  0  0  0  0  0
   35.0942    1.7062    3.8870 C   0  0  0  0  0 15  0  0  0  0  0  0
   33.0012    4.0079    4.3488 C   0  0  0  0  0 15  0  0  0  0  0  0
   31.9312    0.3842    0.6488 H   0  0  0  0  0 15  0  0  0  0  0  0
   34.5822    1.4584    1.1137 H   0  0  0  0  0 15  0  0  0  0  0  0
   32.9642    1.3118    3.7364 H   0  0  0  0  0 15  0  0  0  0  0  0
   34.1382    3.8815    2.4834 H   0  0  0  0  0 15  0  0  0  0  0  0
   32.4532    3.4198    2.3757 H   0  0  0  0  0 15  0  0  0  0  0  0
   35.0502    2.1980    4.8743 H   0  0  0  0  0 15  0  0  0  0  0  0
   35.3932    0.6658    4.1094 H   0  0  0  0  0 15  0  0  0  0  0  0
   35.9262    2.1755    3.3304 H   0  0  0  0  0 15  0  0  0  0  0  0
   32.6652    5.0506    4.1784 H   0  0  0  0  0 15  0  0  0  0  0  0
   32.1852    3.4881    4.8795 H   0  0  0  0  0 15  0  0  0  0  0  0
   33.8642    4.0614    5.0365 H   0  0  0  0  0 15  0  0  0  0  0  0
   33.9963   -1.1934    1.0293 N   0  0  0  0  0 15  0  0  0  0  0  0
   35.2433   -1.8904    0.7260 C   0  0  0  0  0 15  0  0  0  0  0  0
   35.5713   -1.7965   -0.7454 C   0  0  0  0  0 15  0  0  0  0  0  0
   34.8263   -1.1835   -1.5586 O   0  0  0  0  0 15  0  0  0  0  0  0
   35.1253   -3.3929    1.1232 C   0  0  0  0  0 15  0  0  0  0  0  0
   34.7913   -3.6888    2.5930 C   0  0  0  0  0 15  0  0  0  0  0  0
   33.4533   -3.7667    2.9945 C   0  0  0  0  0 15  0  0  0  0  0  0
   35.8053   -3.8218    3.5439 C   0  0  0  0  0 15  0  0  0  0  0  0
   33.1333   -3.9522    4.3361 C   0  0  0  0  0 15  0  0  0  0  0  0
   35.4853   -4.0224    4.8825 C   0  0  0  0  0 15  0  0  0  0  0  0
   34.1493   -4.0826    5.2809 C   0  0  0  0  0 15  0  0  0  0  0  0
   33.4193   -0.6917    0.2657 H   0  0  0  0  0 15  0  0  0  0  0  0
   36.0663   -1.4133    1.2922 H   0  0  0  0  0 15  0  0  0  0  0  0
   34.3713   -3.8890    0.4756 H   0  0  0  0  0 15  0  0  0  0  0  0
   36.0683   -3.9154    0.8660 H   0  0  0  0  0 15  0  0  0  0  0  0
   32.6583   -3.6343    2.2719 H   0  0  0  0  0 15  0  0  0  0  0  0
   36.8423   -3.7551    3.2451 H   0  0  0  0  0 15  0  0  0  0  0  0
   32.0983   -3.9812    4.6402 H   0  0  0  0  0 15  0  0  0  0  0  0
   36.2723   -4.1147    5.6184 H   0  0  0  0  0 15  0  0  0  0  0  0
   33.8993   -4.2238    6.3206 H   0  0  0  0  0 15  0  0  0  0  0  0
   35.4744   -0.8072   -1.3536 N   0  0  0  0  0 15  0  0  0  0  0  0
   36.4374   -0.2237   -2.2811 C   0  0  0  0  0 15  0  0  0  0  0  0
   37.4374    0.5894   -1.4961 C   0  0  0  0  0 15  0  0  0  0  0  0
   38.6274    0.4077   -1.6936 O   0  0  0  0  0 15  0  0  0  0  0  0
   35.7594    0.6881   -3.3388 C   0  0  0  0  0 15  0  0  0  0  0  0
   36.9524   -1.0417   -2.8123 H   0  0  0  0  0 15  0  0  0  0  0  0
   34.5054   -0.5779   -1.4522 H   0  0  0  0  0 15  0  0  0  0  0  0
   35.2404    1.5298   -2.8595 H   0  0  0  0  0 15  0  0  0  0  0  0
   35.0254    0.1069   -3.9195 H   0  0  0  0  0 15  0  0  0  0  0  0
   36.5154    1.0907   -4.0310 H   0  0  0  0  0 15  0  0  0  0  0  0
   36.9525    1.4729   -0.5608 N   0  0  0  0  0 15  0  0  0  0  0  0
   38.2015    2.0167   -0.0359 C   0  0  0  0  0 15  0  0  0  0  0  0
   38.5145    1.4402    1.3235 C   0  0  0  0  0 15  0  0  0  0  0  0
   39.7205    1.9009    1.9385 O   0  0  0  0  0 15  0  0  0  0  0  0
   38.1765    3.5990   -0.0137 C   0  0  0  0  0 15  0  0  0  0  0  0
   37.7845    4.2654   -1.3701 C   0  0  0  0  0 15  0  0  0  0  0  0
   39.5285    4.2202    0.4584 C   0  0  0  0  0 15  0  0  0  0  0  0
   37.4355    5.7678   -1.3067 C   0  0  0  0  0 15  0  0  0  0  0  0
   36.3655    0.7539   -0.0096 H   0  0  0  0  0 15  0  0  0  0  0  0
   39.0165    1.6924   -0.7092 H   0  0  0  0  0 15  0  0  0  0  0  0
   37.3985    3.8930    0.7253 H   0  0  0  0  0 15  0  0  0  0  0  0
   38.5725    4.0877   -2.1270 H   0  0  0  0  0 15  0  0  0  0  0  0
   36.8875    3.7642   -1.7804 H   0  0  0  0  0 15  0  0  0  0  0  0
   39.4845    5.3212    0.5242 H   0  0  0  0  0 15  0  0  0  0  0  0
   39.8275    3.8944    1.4712 H   0  0  0  0  0 15  0  0  0  0  0  0
   40.3605    3.9716   -0.2258 H   0  0  0  0  0 15  0  0  0  0  0  0
   37.0995    6.1399   -2.2956 H   0  0  0  0  0 15  0  0  0  0  0  0
   36.6195    5.9688   -0.5916 H   0  0  0  0  0 15  0  0  0  0  0  0
   38.2985    6.3906   -1.0103 H   0  0  0  0  0 15  0  0  0  0  0  0
   38.4306    0.2974    1.5477 N   0  0  0  0  0 15  0  0  0  0  0  0
   39.3776   -0.5803    2.2339 C   0  0  0  0  0 15  0  0  0  0  0  0
   40.3476   -1.1324    1.2152 C   0  0  0  0  0 15  0  0  0  0  0  0
   41.5326   -1.1776    1.5013 O   0  0  0  0  0 15  0  0  0  0  0  0
   38.6726   -1.7480    2.9755 C   0  0  0  0  0 15  0  0  0  0  0  0
   37.7856   -1.2276    4.1419 C   0  0  0  0  0 15  0  0  0  0  0  0
   36.9206   -2.3589    4.7595 C   0  0  0  0  0 15  0  0  0  0  0  0
   35.9596   -1.8097    5.8473 C   0  0  0  0  0 15  0  0  0  0  0  0
   35.0966   -2.8766    6.4046 N   0  0  0  0  0 15  0  0  0  0  0  0
   39.9366    0.0115    2.9800 H   0  0  0  0  0 15  0  0  0  0  0  0
   37.4736    0.0174    1.4709 H   0  0  0  0  0 15  0  0  0  0  0  0
   39.4316   -2.4348    3.3879 H   0  0  0  0  0 15  0  0  0  0  0  0
   38.0616   -2.3115    2.2533 H   0  0  0  0  0 15  0  0  0  0  0  0
   37.1136   -0.4333    3.7792 H   0  0  0  0  0 15  0  0  0  0  0  0
   38.4256   -0.7856    4.9258 H   0  0  0  0  0 15  0  0  0  0  0  0
   37.5796   -3.1252    5.2001 H   0  0  0  0  0 15  0  0  0  0  0  0
   36.3186   -2.8343    3.9689 H   0  0  0  0  0 15  0  0  0  0  0  0
   35.3236   -1.0283    5.4010 H   0  0  0  0  0 15  0  0  0  0  0  0
   36.5486   -1.3435    6.6568 H   0  0  0  0  0 15  0  0  0  0  0  0
   34.4946   -3.3454    5.6429 H   0  0  0  0  0 15  0  0  0  0  0  0
   34.4116   -2.4794    7.1419 H   0  0  0  0  0 15  0  0  0  0  0  0
   35.6796   -3.6420    6.8919 H   0  0  0  0  0 15  0  0  0  0  0  0
   39.9087   -1.5758    0.0251 N   0  0  0  0  0 15  0  0  0  0  0  0
   41.1337   -1.9634   -0.6683 C   0  0  0  0  0 15  0  0  0  0  0  0
   41.5587   -0.9013   -1.6510 C   0  0  0  0  0 15  0  0  0  0  0  0
   40.9167    0.1382   -1.8077 O   0  0  0  0  0 15  0  0  0  0  0  0
   40.9647   -3.3419   -1.3546 C   0  0  0  0  0 15  0  0  0  0  0  0
   40.0687   -3.3027   -2.4697 O   0  0  0  0  0 15  0  0  0  0  0  0
   39.4097   -0.6403   -0.1759 H   0  0  0  0  0 15  0  0  0  0  0  0
   41.9397   -2.0442    0.0857 H   0  0  0  0  0 15  0  0  0  0  0  0
   41.9497   -3.7033   -1.7123 H   0  0  0  0  0 15  0  0  0  0  0  0
   40.6247   -4.1104   -0.6342 H   0  0  0  0  0 15  0  0  0  0  0  0
   39.2017   -3.0584   -2.1334 H   0  0  0  0  0 15  0  0  0  0  0  0
   41.3868    0.2480   -1.5564 N   0  0  0  0  0 15  0  0  0  0  0  0
   42.6358    0.9741   -1.7662 C   0  0  0  0  0 15  0  0  0  0  0  0
   42.9488    1.8653   -0.5888 C   0  0  0  0  0 15  0  0  0  0  0  0
   44.1548    2.6281   -0.6816 O   0  0  0  0  0 15  0  0  0  0  0  0
   42.6108    1.7821   -3.1268 C   0  0  0  0  0 15  0  0  0  0  0  0
   42.2188    0.9384   -4.3806 C   0  0  0  0  0 15  0  0  0  0  0  0
   43.9628    2.5010   -3.4300 C   0  0  0  0  0 15  0  0  0  0  0  0
   41.8698    1.7422   -5.6515 C   0  0  0  0  0 15  0  0  0  0  0  0
   40.7998    0.3674   -0.6584 H   0  0  0  0  0 15  0  0  0  0  0  0
   43.4508    0.2288   -1.8207 H   0  0  0  0  0 15  0  0  0  0  0  0
   41.8328    2.5693   -3.0133 H   0  0  0  0  0 15  0  0  0  0  0  0
   43.0068    0.1936   -4.6039 H   0  0  0  0  0 15  0  0  0  0  0  0
   41.3218    0.3329   -4.1507 H   0  0  0  0  0 15  0  0  0  0  0  0
   43.9188    3.1069   -4.3517 H   0  0  0  0  0 15  0  0  0  0  0  0
   44.2618    3.2166   -2.6427 H   0  0  0  0  0 15  0  0  0  0  0  0
   44.7948    1.7839   -3.5556 H   0  0  0  0  0 15  0  0  0  0  0  0
   41.5338    1.0704   -6.4670 H   0  0  0  0  0 15  0  0  0  0  0  0
   41.0538    2.4624   -5.4693 H   0  0  0  0  0 15  0  0  0  0  0  0
   42.7328    2.3097   -6.0437 H   0  0  0  0  0 15  0  0  0  0  0  0
   42.8649    1.4899    0.5136 N   0  0  0  0  0 15  0  0  0  0  0  0
   43.8119    1.6473    1.6166 C   0  0  0  0  0 15  0  0  0  0  0  0
   44.7819    0.4890    1.5874 C   0  0  0  0  0 15  0  0  0  0  0  0
   45.9669    0.7145    1.7692 O   0  0  0  0  0 15  0  0  0  0  0  0
   43.1069    1.7082    2.9986 C   0  0  0  0  0 15  0  0  0  0  0  0
   42.2199    2.9787    3.1289 C   0  0  0  0  0 15  0  0  0  0  0  0
   41.3549    2.9502    4.4174 C   0  0  0  0  0 15  0  0  0  0  0  0
   40.3939    4.1670    4.4836 C   0  0  0  0  0 15  0  0  0  0  0  0
   39.5309    4.1183    5.6863 N   0  0  0  0  0 15  0  0  0  0  0  0
   44.3709    2.5891    1.4755 H   0  0  0  0  0 15  0  0  0  0  0  0
   41.9079    1.2838    0.7181 H   0  0  0  0  0 15  0  0  0  0  0  0
   43.8659    1.7233    3.7994 H   0  0  0  0  0 15  0  0  0  0  0  0
   42.4959    0.8012    3.1270 H   0  0  0  0  0 15  0  0  0  0  0  0
   41.5479    3.0603    2.2594 H   0  0  0  0  0 15  0  0  0  0  0  0
   42.8599    3.8786    3.1363 H   0  0  0  0  0 15  0  0  0  0  0  0
   42.0139    2.9502    5.3014 H   0  0  0  0  0 15  0  0  0  0  0  0
   40.7529    2.0278    4.4354 H   0  0  0  0  0 15  0  0  0  0  0  0
   39.7579    4.1696    3.5837 H   0  0  0  0  0 15  0  0  0  0  0  0
   40.9829    5.1011    4.4829 H   0  0  0  0  0 15  0  0  0  0  0  0
   38.9289    3.2243    5.7129 H   0  0  0  0  0 15  0  0  0  0  0  0
   38.8459    4.9554    5.7094 H   0  0  0  0  0 15  0  0  0  0  0  0
   40.1139    4.1592    6.5927 H   0  0  0  0  0 15  0  0  0  0  0  0
   44.3430   -0.7638    1.3786 N   0  0  0  0  0 15  0  0  0  0  0  0
   45.2730   -1.8910    1.3698 C   0  0  0  0  0 15  0  0  0  0  0  0
   46.2540   -1.6844    0.2372 C   0  0  0  0  0 15  0  0  0  0  0  0
   47.4390   -1.8918    0.4387 O   0  0  0  0  0 15  0  0  0  0  0  0
   44.5690   -3.2650    1.1839 C   0  0  0  0  0 15  0  0  0  0  0  0
   43.5230   -3.6174    2.2875 C   0  0  0  0  0 15  0  0  0  0  0  0
   42.8490   -4.9776    1.9529 C   0  0  0  0  0 15  0  0  0  0  0  0
   44.1490   -3.6766    3.7097 C   0  0  0  0  0 15  0  0  0  0  0  0
   45.8430   -1.9010    2.3131 H   0  0  0  0  0 15  0  0  0  0  0  0
   43.3890   -0.9132    1.1134 H   0  0  0  0  0 15  0  0  0  0  0  0
   45.3420   -4.0500    1.1641 H   0  0  0  0  0 15  0  0  0  0  0  0
   44.0660   -3.2595    0.2052 H   0  0  0  0  0 15  0  0  0  0  0  0
   42.7250   -2.8555    2.2991 H   0  0  0  0  0 15  0  0  0  0  0  0
   42.3730   -4.9377    0.9592 H   0  0  0  0  0 15  0  0  0  0  0  0
   42.0730   -5.2231    2.6919 H   0  0  0  0  0 15  0  0  0  0  0  0
   43.5970   -5.7866    1.9490 H   0  0  0  0  0 15  0  0  0  0  0  0
   45.0110   -4.3631    3.7190 H   0  0  0  0  0 15  0  0  0  0  0  0
   43.4080   -4.0372    4.4400 H   0  0  0  0  0 15  0  0  0  0  0  0
   44.4780   -2.6813    4.0402 H   0  0  0  0  0 15  0  0  0  0  0  0
   45.8211   -1.2256   -0.9908 N   0  0  0  0  0 15  0  0  0  0  0  0
   47.0701   -1.0455   -1.7249 C   0  0  0  0  0 15  0  0  0  0  0  0
   47.3831    0.4193   -1.9105 C   0  0  0  0  0 15  0  0  0  0  0  0
   48.5891    0.7191   -2.6180 O   0  0  0  0  0 15  0  0  0  0  0  0
   47.0451   -1.8223   -3.1035 C   0  0  0  0  0 15  0  0  0  0  0  0
   46.6531   -3.3298   -2.9971 C   0  0  0  0  0 15  0  0  0  0  0  0
   48.3971   -1.7268   -3.8779 C   0  0  0  0  0 15  0  0  0  0  0  0
   46.3041   -4.0309   -4.3275 C   0  0  0  0  0 15  0  0  0  0  0  0
   45.2341   -0.3876   -0.6467 H   0  0  0  0  0 15  0  0  0  0  0  0
   47.8851   -1.4643   -1.1059 H   0  0  0  0  0 15  0  0  0  0  0  0
   46.2671   -1.3315   -3.7294 H   0  0  0  0  0 15  0  0  0  0  0  0
   47.4411   -3.8947   -2.4628 H   0  0  0  0  0 15  0  0  0  0  0  0
   45.7561   -3.4323   -2.3576 H   0  0  0  0  0 15  0  0  0  0  0  0
   48.3531   -2.2238   -4.8626 H   0  0  0  0  0 15  0  0  0  0  0  0
   48.6961   -0.6876   -4.1058 H   0  0  0  0  0 15  0  0  0  0  0  0
   49.2291   -2.1931   -3.3189 H   0  0  0  0  0 15  0  0  0  0  0  0
   45.9681   -5.0727   -4.1516 H   0  0  0  0  0 15  0  0  0  0  0  0
   45.4881   -3.5139   -4.8609 H   0  0  0  0  0 15  0  0  0  0  0  0
   47.1671   -4.0880   -5.0149 H   0  0  0  0  0 15  0  0  0  0  0  0
   47.3381    1.1220   -1.1616 O   0  0  0  0  0 15  0  0  0  0  0  0
   48.0291    1.7192   -0.8923 H   0  0  0  0  0 15  0  0  0  0  0  0
M  END
$$$$
