drugbank_target|P80529 Cathepsin B-like cysteine proteinase (DB12245)
 OpenBabel12092121193D

541549  0  0  0  0  0  0  0  0999 V2000
   -0.9080    1.9825   -0.1171 H   0  0  0  0  0 15  0  0  0  0  0  0
    0.0000    1.5760    0.0000 N   0  0  0  0  0 15  0  0  0  0  0  0
    0.9470    2.0842    0.9914 C   0  0  0  0  0 15  0  0  0  0  0  0
    1.9170    0.9796    1.3414 C   0  0  0  0  0 15  0  0  0  0  0  0
    3.1020    1.2521    1.4397 O   0  0  0  0  0 15  0  0  0  0  0  0
    0.2420    2.5922    2.2781 C   0  0  0  0  0 15  0  0  0  0  0  0
   -0.6450    3.8358    1.9872 C   0  0  0  0  0 15  0  0  0  0  0  0
   -1.5100    4.2288    3.2148 C   0  0  0  0  0 15  0  0  0  0  0  0
   -2.4710    5.4008    2.8807 C   0  0  0  0  0 15  0  0  0  0  0  0
   -3.3340    5.7467    4.0336 N   0  0  0  0  0 15  0  0  0  0  0  0
    1.5060    2.9286    0.5511 H   0  0  0  0  0 15  0  0  0  0  0  0
   -0.9570    1.4478    0.2605 H   0  0  0  0  0 15  0  0  0  0  0  0
    1.0010    2.8675    3.0303 H   0  0  0  0  0 15  0  0  0  0  0  0
   -0.3690    1.7766    2.6951 H   0  0  0  0  0 15  0  0  0  0  0  0
   -1.3170    3.6296    1.1387 H   0  0  0  0  0 15  0  0  0  0  0  0
   -0.0050    4.6890    1.7010 H   0  0  0  0  0 15  0  0  0  0  0  0
   -0.8510    4.5169    4.0504 H   0  0  0  0  0 15  0  0  0  0  0  0
   -2.1120    3.3627    3.5323 H   0  0  0  0  0 15  0  0  0  0  0  0
   -3.1070    5.1099    2.0291 H   0  0  0  0  0 15  0  0  0  0  0  0
   -1.8820    6.2836    2.5756 H   0  0  0  0  0 15  0  0  0  0  0  0
   -3.9360    4.9102    4.3502 H   0  0  0  0  0 15  0  0  0  0  0  0
   -4.0190    6.5456    3.7826 H   0  0  0  0  0 15  0  0  0  0  0  0
   -2.7510    6.0807    4.8772 H   0  0  0  0  0 15  0  0  0  0  0  0
    1.4781   -0.2728    1.5522 N   0  0  0  0  0 15  0  0  0  0  0  0
    2.8891   -0.8438    1.6655 C   0  0  0  0  0 15  0  0  0  0  0  0
    3.2401   -1.8704    0.5926 C   0  0  0  0  0 15  0  0  0  0  0  0
    2.3651   -2.1476   -0.2658 O   0  0  0  0  0 15  0  0  0  0  0  0
    2.9601   -1.5372    3.0192 C   0  0  0  0  0 15  0  0  0  0  0  0
    1.5191   -2.0563    3.1527 C   0  0  0  0  0 15  0  0  0  0  0  0
    0.6661   -0.8984    2.6234 C   0  0  0  0  0 15  0  0  0  0  0  0
    3.6171   -0.0491    1.5862 H   0  0  0  0  0 15  0  0  0  0  0  0
    3.6381   -2.4042    2.9492 H   0  0  0  0  0 15  0  0  0  0  0  0
    3.1501   -0.7898    3.7998 H   0  0  0  0  0 15  0  0  0  0  0  0
    1.2511   -2.8333    2.4198 H   0  0  0  0  0 15  0  0  0  0  0  0
    1.3641   -2.2714    4.2183 H   0  0  0  0  0 15  0  0  0  0  0  0
   -0.2719   -1.2919    2.1951 H   0  0  0  0  0 15  0  0  0  0  0  0
    0.5111   -0.1645    3.4291 H   0  0  0  0  0 15  0  0  0  0  0  0
    2.9562   -1.4816   -0.5373 N   0  0  0  0  0 15  0  0  0  0  0  0
    3.9042   -1.6257   -1.6635 C   0  0  0  0  0 15  0  0  0  0  0  0
    4.8982   -0.4924   -1.6209 C   0  0  0  0  0 15  0  0  0  0  0  0
    6.1042   -0.6708   -1.6703 O   0  0  0  0  0 15  0  0  0  0  0  0
    2.4792   -0.5120   -0.5508 H   0  0  0  0  0 15  0  0  0  0  0  0
    4.4502   -2.5718   -1.5134 H   0  0  0  0  0 15  0  0  0  0  0  0
    3.1992   -1.6758   -3.0465 C   0  0  0  0  0 15  0  0  0  0  0  0
    2.5222   -2.5415   -3.0862 H   0  0  0  0  0 15  0  0  0  0  0  0
    3.9622   -1.8171   -3.8309 H   0  0  0  0  0 15  0  0  0  0  0  0
    2.4212   -0.4130   -3.3436 C   0  0  0  0  0 15  0  0  0  0  0  0
    2.9512    0.4773   -3.9885 O   0  0  0  0  0 15  0  0  0  0  0  0
    1.1572   -0.2870   -2.8918 N   0  0  0  0  0 15  0  0  0  0  0  0
    0.7042   -1.0124   -2.3687 H   0  0  0  0  0 15  0  0  0  0  0  0
    0.6622    0.5570   -3.0943 H   0  0  0  0  0 15  0  0  0  0  0  0
    4.4343    0.7856   -1.3662 N   0  0  0  0  0 15  0  0  0  0  0  0
    5.6643    1.5722   -1.3404 C   0  0  0  0  0 15  0  0  0  0  0  0
    6.0723    1.8903    0.0795 C   0  0  0  0  0 15  0  0  0  0  0  0
    5.4153    1.5088    1.0479 O   0  0  0  0  0 15  0  0  0  0  0  0
    5.4773    2.9176   -2.1004 C   0  0  0  0  0 15  0  0  0  0  0  0
    5.1413    2.8265   -3.5910 C   0  0  0  0  0 15  0  0  0  0  0  0
    6.1383    2.5463   -4.5327 C   0  0  0  0  0 15  0  0  0  0  0  0
    3.8233    3.0111   -4.0204 C   0  0  0  0  0 15  0  0  0  0  0  0
    5.8173    2.4518   -5.8836 C   0  0  0  0  0 15  0  0  0  0  0  0
    3.5043    2.9128   -5.3722 C   0  0  0  0  0 15  0  0  0  0  0  0
    4.5023    2.6335   -6.3019 C   0  0  0  0  0 15  0  0  0  0  0  0
    4.1903    2.5351   -7.6288 O   0  0  0  0  0 15  0  0  0  0  0  0
    3.9223    0.4942   -0.4613 H   0  0  0  0  0 15  0  0  0  0  0  0
    6.4763    0.9826   -1.8037 H   0  0  0  0  0 15  0  0  0  0  0  0
    4.7063    3.5278   -1.5837 H   0  0  0  0  0 15  0  0  0  0  0  0
    6.3953    3.5306   -2.0026 H   0  0  0  0  0 15  0  0  0  0  0  0
    7.1613    2.4007   -4.2141 H   0  0  0  0  0 15  0  0  0  0  0  0
    3.0403    3.2185   -3.3005 H   0  0  0  0  0 15  0  0  0  0  0  0
    6.5843    2.2330   -6.6090 H   0  0  0  0  0 15  0  0  0  0  0  0
    2.4813    3.0540   -5.6868 H   0  0  0  0  0 15  0  0  0  0  0  0
    3.2493    2.6897   -7.7305 H   0  0  0  0  0 15  0  0  0  0  0  0
    5.9124    1.2097    1.0102 N   0  0  0  0  0 15  0  0  0  0  0  0
    6.8594    0.9643    2.0969 C   0  0  0  0  0 15  0  0  0  0  0  0
    7.8294   -0.1079    1.6575 C   0  0  0  0  0 15  0  0  0  0  0  0
    9.0144    0.0382    1.9076 O   0  0  0  0  0 15  0  0  0  0  0  0
    6.1544    0.5294    3.4101 C   0  0  0  0  0 15  0  0  0  0  0  0
    5.2674    1.6704    3.9840 C   0  0  0  0  0 15  0  0  0  0  0  0
    4.4024    1.1853    5.1781 C   0  0  0  0  0 15  0  0  0  0  0  0
    3.4414    2.2989    5.6729 C   0  0  0  0  0 15  0  0  0  0  0  0
    2.5784    1.8255    6.7795 N   0  0  0  0  0 15  0  0  0  0  0  0
    7.4184    1.8946    2.3002 H   0  0  0  0  0 15  0  0  0  0  0  0
    4.9554    0.9443    1.1279 H   0  0  0  0  0 15  0  0  0  0  0  0
    6.9134    0.2586    4.1640 H   0  0  0  0  0 15  0  0  0  0  0  0
    5.5434   -0.3639    3.2074 H   0  0  0  0  0 15  0  0  0  0  0  0
    4.5954    2.0560    3.2005 H   0  0  0  0  0 15  0  0  0  0  0  0
    5.9074    2.5088    4.3112 H   0  0  0  0  0 15  0  0  0  0  0  0
    5.0614    0.8708    6.0042 H   0  0  0  0  0 15  0  0  0  0  0  0
    3.8004    0.3169    4.8667 H   0  0  0  0  0 15  0  0  0  0  0  0
    2.8054    2.6215    4.8328 H   0  0  0  0  0 15  0  0  0  0  0  0
    4.0304    3.1722    6.0046 H   0  0  0  0  0 15  0  0  0  0  0  0
    1.9764    0.9805    6.4863 H   0  0  0  0  0 15  0  0  0  0  0  0
    1.8934    2.5996    7.0990 H   0  0  0  0  0 15  0  0  0  0  0  0
    3.1614    1.5412    7.6411 H   0  0  0  0  0 15  0  0  0  0  0  0
    7.3905   -1.2043    1.0166 N   0  0  0  0  0 15  0  0  0  0  0  0
    8.8065   -1.4185    0.7314 C   0  0  0  0  0 15  0  0  0  0  0  0
    9.0065   -1.8936   -0.6889 C   0  0  0  0  0 15  0  0  0  0  0  0
    8.0625   -2.0625   -1.4567 O   0  0  0  0  0 15  0  0  0  0  0  0
    9.3755   -2.4402    1.7571 C   0  0  0  0  0 15  0  0  0  0  0  0
   10.9235   -2.5778    1.7753 C   0  0  0  0  0 15  0  0  0  0  0  0
   11.3985   -3.6319    2.7902 C   0  0  0  0  0 15  0  0  0  0  0  0
   12.8895   -3.7068    2.7776 N   0  0  0  0  0 15  0  0  0  0  0  0
   13.6245   -4.5190    3.5295 C   0  0  0  0  0 15  0  0  0  0  0  0
   13.1205   -5.3692    4.3782 N   0  0  0  0  0 15  0  0  0  0  0  0
   14.9135   -4.4643    3.4155 N   0  0  0  0  0 15  0  0  0  0  0  0
    7.0645   -0.8791    1.9335 H   0  0  0  0  0 15  0  0  0  0  0  0
    9.3275   -0.4484    0.8352 H   0  0  0  0  0 15  0  0  0  0  0  0
    9.0335   -2.1611    2.7747 H   0  0  0  0  0 15  0  0  0  0  0  0
    8.9075   -3.4301    1.5693 H   0  0  0  0  0 15  0  0  0  0  0  0
   11.2945   -2.8502    0.7646 H   0  0  0  0  0 15  0  0  0  0  0  0
   11.3755   -1.5899    2.0039 H   0  0  0  0  0 15  0  0  0  0  0  0
   11.0195   -3.3670    3.8026 H   0  0  0  0  0 15  0  0  0  0  0  0
   10.9495   -4.6161    2.5343 H   0  0  0  0  0 15  0  0  0  0  0  0
   13.4405   -3.0994    2.1620 H   0  0  0  0  0 15  0  0  0  0  0  0
   13.7535   -5.9598    4.9196 H   0  0  0  0  0 15  0  0  0  0  0  0
   12.0985   -5.3642    4.4190 H   0  0  0  0  0 15  0  0  0  0  0  0
   15.2895   -3.7904    2.7467 H   0  0  0  0  0 15  0  0  0  0  0  0
   15.4625   -5.0949    4.0040 H   0  0  0  0  0 15  0  0  0  0  0  0
    8.8686   -0.7928   -1.3621 N   0  0  0  0  0 15  0  0  0  0  0  0
    9.8006   -0.1515   -2.2870 C   0  0  0  0  0 15  0  0  0  0  0  0
   10.8136    0.6413   -1.4964 C   0  0  0  0  0 15  0  0  0  0  0  0
   12.0026    0.4759   -1.7204 O   0  0  0  0  0 15  0  0  0  0  0  0
    9.1026    0.8084   -3.2912 C   0  0  0  0  0 15  0  0  0  0  0  0
    8.2756    0.0650   -4.3735 C   0  0  0  0  0 15  0  0  0  0  0  0
    7.3346    0.9414   -5.1771 C   0  0  0  0  0 15  0  0  0  0  0  0
    6.3606    0.3974   -5.6781 O   0  0  0  0  0 15  0  0  0  0  0  0
    7.5626    2.2652   -5.3448 N   0  0  0  0  0 15  0  0  0  0  0  0
   10.3276   -0.9460   -2.8438 H   0  0  0  0  0 15  0  0  0  0  0  0
    7.8886   -0.6470   -1.4841 H   0  0  0  0  0 15  0  0  0  0  0  0
    9.8806    1.3986   -3.7976 H   0  0  0  0  0 15  0  0  0  0  0  0
    8.4506    1.5038   -2.7405 H   0  0  0  0  0 15  0  0  0  0  0  0
    7.6706   -0.7063   -3.8782 H   0  0  0  0  0 15  0  0  0  0  0  0
    8.9586   -0.4478   -5.0683 H   0  0  0  0  0 15  0  0  0  0  0  0
    8.3566    2.7313   -4.9540 H   0  0  0  0  0 15  0  0  0  0  0  0
    6.9136    2.8049   -5.8836 H   0  0  0  0  0 15  0  0  0  0  0  0
   10.3467    1.4787   -0.5451 N   0  0  0  0  0 15  0  0  0  0  0  0
   11.5937    2.0249   -0.0166 C   0  0  0  0  0 15  0  0  0  0  0  0
   11.9217    1.4207    1.3284 C   0  0  0  0  0 15  0  0  0  0  0  0
   11.1767    0.5615    1.8747 O   0  0  0  0  0 15  0  0  0  0  0  0
   11.4757    3.5713    0.1387 C   0  0  0  0  0 15  0  0  0  0  0  0
   11.1417    4.3641   -1.1338 C   0  0  0  0  0 15  0  0  0  0  0  0
    9.8037    4.5779   -1.4826 C   0  0  0  0  0 15  0  0  0  0  0  0
   12.1557    4.8222   -1.9776 C   0  0  0  0  0 15  0  0  0  0  0  0
    9.4837    5.2223   -2.6738 C   0  0  0  0  0 15  0  0  0  0  0  0
   11.8357    5.4798   -3.1608 C   0  0  0  0  0 15  0  0  0  0  0  0
   10.4997    5.6759   -3.5128 C   0  0  0  0  0 15  0  0  0  0  0  0
    9.7697    0.7410   -0.0061 H   0  0  0  0  0 15  0  0  0  0  0  0
   12.4167    1.7768   -0.7142 H   0  0  0  0  0 15  0  0  0  0  0  0
   10.7217    3.8087    0.9192 H   0  0  0  0  0 15  0  0  0  0  0  0
   12.4187    3.9703    0.5628 H   0  0  0  0  0 15  0  0  0  0  0  0
    9.0087    4.2004   -0.8523 H   0  0  0  0  0 15  0  0  0  0  0  0
   13.1927    4.6549   -1.7213 H   0  0  0  0  0 15  0  0  0  0  0  0
    8.4487    5.3562   -2.9483 H   0  0  0  0  0 15  0  0  0  0  0  0
   12.6227    5.8244   -3.8175 H   0  0  0  0  0 15  0  0  0  0  0  0
   10.2497    6.1730   -4.4367 H   0  0  0  0  0 15  0  0  0  0  0  0
   11.8248    0.2810    1.5507 N   0  0  0  0  0 15  0  0  0  0  0  0
   12.7348   -0.6139    2.2643 C   0  0  0  0  0 15  0  0  0  0  0  0
   13.7508   -1.1652    1.2922 C   0  0  0  0  0 15  0  0  0  0  0  0
   14.9268   -1.1943    1.6217 O   0  0  0  0  0 15  0  0  0  0  0  0
   11.9918   -1.7788    2.9759 C   0  0  0  0  0 15  0  0  0  0  0  0
   11.0528   -1.2636    4.1028 C   0  0  0  0  0 15  0  0  0  0  0  0
   10.2858   -2.3730    4.7804 C   0  0  0  0  0 15  0  0  0  0  0  0
   10.5088   -3.5678    4.4505 O   0  0  0  0  0 15  0  0  0  0  0  0
    9.4428   -2.0512    5.6587 O   0  0  0  0  0 15  0  0  0  0  0  0
   13.2688   -0.0357    3.0368 H   0  0  0  0  0 15  0  0  0  0  0  0
   10.8538    0.0482    1.4932 H   0  0  0  0  0 15  0  0  0  0  0  0
   12.7358   -2.4579    3.4229 H   0  0  0  0  0 15  0  0  0  0  0  0
   11.4108   -2.3440    2.2325 H   0  0  0  0  0 15  0  0  0  0  0  0
   10.3178   -0.5507    3.7002 H   0  0  0  0  0 15  0  0  0  0  0  0
   11.6508   -0.7441    4.8654 H   0  0  0  0  0 15  0  0  0  0  0  0
   13.3029   -1.5760    0.0084 N   0  0  0  0  0 15  0  0  0  0  0  0
   14.7139   -1.7892   -0.5333 C   0  0  0  0  0 15  0  0  0  0  0  0
   15.0649   -0.9166   -1.7347 C   0  0  0  0  0 15  0  0  0  0  0  0
   14.1899   -0.1213   -2.1606 O   0  0  0  0  0 15  0  0  0  0  0  0
   14.7849   -3.2449   -0.9743 C   0  0  0  0  0 15  0  0  0  0  0  0
   13.3439   -3.4688   -1.4613 C   0  0  0  0  0 15  0  0  0  0  0  0
   12.4909   -2.7416   -0.4163 C   0  0  0  0  0 15  0  0  0  0  0  0
   15.4419   -1.5696    0.2345 H   0  0  0  0  0 15  0  0  0  0  0  0
   15.4629   -3.3306   -1.8399 H   0  0  0  0  0 15  0  0  0  0  0  0
   14.9749   -3.8797   -0.0997 H   0  0  0  0  0 15  0  0  0  0  0  0
   13.0759   -2.8862   -2.3565 H   0  0  0  0  0 15  0  0  0  0  0  0
   13.1889   -4.5557   -1.4829 H   0  0  0  0  0 15  0  0  0  0  0  0
   11.5529   -2.3902   -0.8798 H   0  0  0  0  0 15  0  0  0  0  0  0
   12.3359   -3.4034    0.4495 H   0  0  0  0  0 15  0  0  0  0  0  0
   14.7810    0.2645   -1.5536 N   0  0  0  0  0 15  0  0  0  0  0  0
   16.0280    0.9950   -1.7637 C   0  0  0  0  0 15  0  0  0  0  0  0
   16.3560    1.8598   -0.5695 C   0  0  0  0  0 15  0  0  0  0  0  0
   15.6110    1.9051    0.4478 O   0  0  0  0  0 15  0  0  0  0  0  0
   15.9100    1.9004   -3.0269 C   0  0  0  0  0 15  0  0  0  0  0  0
   15.5760    1.1924   -4.3485 C   0  0  0  0  0 15  0  0  0  0  0  0
   14.2380    0.9967   -4.7076 C   0  0  0  0  0 15  0  0  0  0  0  0
   16.5900    0.6893   -5.1662 C   0  0  0  0  0 15  0  0  0  0  0  0
   13.9180    0.2853   -5.8601 C   0  0  0  0  0 15  0  0  0  0  0  0
   16.2700   -0.0086   -6.3260 C   0  0  0  0  0 15  0  0  0  0  0  0
   14.9340   -0.2160   -6.6715 C   0  0  0  0  0 15  0  0  0  0  0  0
   14.2040    0.3641   -0.6454 H   0  0  0  0  0 15  0  0  0  0  0  0
   16.8510    0.2665   -1.8964 H   0  0  0  0  0 15  0  0  0  0  0  0
   15.1560    2.6953   -2.8436 H   0  0  0  0  0 15  0  0  0  0  0  0
   16.8530    2.4670   -3.1614 H   0  0  0  0  0 15  0  0  0  0  0  0
   13.4430    1.3549   -4.0662 H   0  0  0  0  0 15  0  0  0  0  0  0
   17.6270    0.8281   -4.8934 H   0  0  0  0  0 15  0  0  0  0  0  0
   12.8830    0.1140   -6.1129 H   0  0  0  0  0 15  0  0  0  0  0  0
   17.0570   -0.4062   -6.9521 H   0  0  0  0  0 15  0  0  0  0  0  0
   14.6840   -0.7692   -7.5630 H   0  0  0  0  0 15  0  0  0  0  0  0
   16.2591    1.4844    0.5294 N   0  0  0  0  0 15  0  0  0  0  0  0
   17.4841    1.6041    1.3147 C   0  0  0  0  0 15  0  0  0  0  0  0
   17.9091    0.2647    1.8623 C   0  0  0  0  0 15  0  0  0  0  0  0
   17.2671   -0.7637    1.6443 O   0  0  0  0  0 15  0  0  0  0  0  0
   17.3151    2.6542    2.4410 C   0  0  0  0  0 15  0  0  0  0  0  0
   16.4191    2.2262    3.4715 O   0  0  0  0  0 15  0  0  0  0  0  0
   15.7601    0.5379    0.3894 H   0  0  0  0  0 15  0  0  0  0  0  0
   18.2901    1.9443    0.6370 H   0  0  0  0  0 15  0  0  0  0  0  0
   18.3001    2.8671    2.9028 H   0  0  0  0  0 15  0  0  0  0  0  0
   16.9751    3.6265    2.0361 H   0  0  0  0  0 15  0  0  0  0  0  0
   15.5521    2.1154    3.0709 H   0  0  0  0  0 15  0  0  0  0  0  0
   17.7372   -0.7783    1.3704 N   0  0  0  0  0 15  0  0  0  0  0  0
   19.0142   -1.5255    1.2242 C   0  0  0  0  0 15  0  0  0  0  0  0
   19.3942   -2.1029   -0.1850 C   0  0  0  0  0 15  0  0  0  0  0  0
   18.7422   -1.9495   -1.1919 O   0  0  0  0  0 15  0  0  0  0  0  0
   18.9522   -2.6116    2.3150 C   0  0  0  0  0 15  0  0  0  0  0  0
   20.3002   -3.2875    2.6872 C   0  0  0  0  0 15  0  0  0  0  0  0
   21.3242   -2.7145    2.3063 O   0  0  0  0  0 15  0  0  0  0  0  0
   20.1832   -4.3231    3.3432 O   0  0  0  0  0 15  0  0  0  0  0  0
   17.2772   -0.6753    0.4773 H   0  0  0  0  0 15  0  0  0  0  0  0
   19.8232   -0.8159    1.4880 H   0  0  0  0  0 15  0  0  0  0  0  0
   18.5952   -2.1657    3.2590 H   0  0  0  0  0 15  0  0  0  0  0  0
   18.2182   -3.3974    2.0655 H   0  0  0  0  0 15  0  0  0  0  0  0
   19.2153   -1.2150   -1.0038 N   0  0  0  0  0 15  0  0  0  0  0  0
   20.1253   -0.9914   -2.1262 C   0  0  0  0  0 15  0  0  0  0  0  0
   21.1413    0.0568   -1.7391 C   0  0  0  0  0 15  0  0  0  0  0  0
   22.3173   -0.1335   -2.0096 O   0  0  0  0  0 15  0  0  0  0  0  0
   19.3823   -0.5603   -3.4214 C   0  0  0  0  0 15  0  0  0  0  0  0
   18.4433   -1.6810   -3.9502 C   0  0  0  0  0 15  0  0  0  0  0  0
   17.6763   -1.2703   -5.1836 C   0  0  0  0  0 15  0  0  0  0  0  0
   17.8993   -0.1444   -5.7022 O   0  0  0  0  0 15  0  0  0  0  0  0
   16.8333   -2.0827   -5.6472 O   0  0  0  0  0 15  0  0  0  0  0  0
   20.6593   -1.9316   -2.3436 H   0  0  0  0  0 15  0  0  0  0  0  0
   18.2443   -1.0000   -1.1100 H   0  0  0  0  0 15  0  0  0  0  0  0
   20.1263   -0.3297   -4.2011 H   0  0  0  0  0 15  0  0  0  0  0  0
   18.8013    0.3511   -3.2179 H   0  0  0  0  0 15  0  0  0  0  0  0
   17.7083   -1.9660   -3.1828 H   0  0  0  0  0 15  0  0  0  0  0  0
   19.0413   -2.5698   -4.1979 H   0  0  0  0  0 15  0  0  0  0  0  0
   20.6934    1.1989   -1.0230 N   0  0  0  0  0 15  0  0  0  0  0  0
   21.6234    2.2514   -0.6192 C   0  0  0  0  0 15  0  0  0  0  0  0
   22.6044    1.6605    0.3689 C   0  0  0  0  0 15  0  0  0  0  0  0
   23.7894    1.9255    0.2529 O   0  0  0  0  0 15  0  0  0  0  0  0
   20.9194    3.4728    0.0369 C   0  0  0  0  0 15  0  0  0  0  0  0
   19.8734    4.1900   -0.8729 C   0  0  0  0  0 15  0  0  0  0  0  0
   19.1994    5.3464   -0.0822 C   0  0  0  0  0 15  0  0  0  0  0  0
   20.4994    4.7445   -2.1839 C   0  0  0  0  0 15  0  0  0  0  0  0
   22.1934    2.5917   -1.4990 H   0  0  0  0  0 15  0  0  0  0  0  0
   19.7394    1.2458   -0.7222 H   0  0  0  0  0 15  0  0  0  0  0  0
   21.6924    4.2010    0.3310 H   0  0  0  0  0 15  0  0  0  0  0  0
   20.4164    3.1243    0.9515 H   0  0  0  0  0 15  0  0  0  0  0  0
   19.0754    3.4806   -1.1510 H   0  0  0  0  0 15  0  0  0  0  0  0
   18.7234    4.9603    0.8342 H   0  0  0  0  0 15  0  0  0  0  0  0
   18.4234    5.8356   -0.6881 H   0  0  0  0  0 15  0  0  0  0  0  0
   19.9474    6.1025    0.2052 H   0  0  0  0  0 15  0  0  0  0  0  0
   21.3614    5.3906   -1.9517 H   0  0  0  0  0 15  0  0  0  0  0  0
   19.7584    5.3383   -2.7412 H   0  0  0  0  0 15  0  0  0  0  0  0
   20.8284    3.9284   -2.8426 H   0  0  0  0  0 15  0  0  0  0  0  0
   22.1715    0.8000    1.3578 N   0  0  0  0  0 15  0  0  0  0  0  0
   23.4205    0.3739    1.9820 C   0  0  0  0  0 15  0  0  0  0  0  0
   23.7335   -1.0630    1.6419 C   0  0  0  0  0 15  0  0  0  0  0  0
   24.9395   -1.5920    2.1993 O   0  0  0  0  0 15  0  0  0  0  0  0
   23.3955    0.6175    3.5456 C   0  0  0  0  0 15  0  0  0  0  0  0
   23.0035    2.0665    3.9749 C   0  0  0  0  0 15  0  0  0  0  0  0
   24.7475    0.2564    4.2372 C   0  0  0  0  0 15  0  0  0  0  0  0
   22.6545    2.2563    5.4667 C   0  0  0  0  0 15  0  0  0  0  0  0
   21.5845    0.1361    0.7416 H   0  0  0  0  0 15  0  0  0  0  0  0
   24.2355    0.9832    1.5494 H   0  0  0  0  0 15  0  0  0  0  0  0
   22.6175   -0.0616    3.9595 H   0  0  0  0  0 15  0  0  0  0  0  0
   23.7915    2.7830    3.6727 H   0  0  0  0  0 15  0  0  0  0  0  0
   22.1065    2.3869    3.4120 H   0  0  0  0  0 15  0  0  0  0  0  0
   24.7035    0.3763    5.3337 H   0  0  0  0  0 15  0  0  0  0  0  0
   25.0465   -0.7967    4.0861 H   0  0  0  0  0 15  0  0  0  0  0  0
   25.5795    0.8892    3.8773 H   0  0  0  0  0 15  0  0  0  0  0  0
   22.3185    3.2936    5.6675 H   0  0  0  0  0 15  0  0  0  0  0  0
   21.8385    1.5850    5.7848 H   0  0  0  0  0 15  0  0  0  0  0  0
   23.5175    2.0686    6.1304 H   0  0  0  0  0 15  0  0  0  0  0  0
   23.6496   -1.4758    0.5530 N   0  0  0  0  0 15  0  0  0  0  0  0
   24.5996   -2.2696   -0.2174 C   0  0  0  0  0 15  0  0  0  0  0  0
   25.5836   -1.3410   -0.8892 C   0  0  0  0  0 15  0  0  0  0  0  0
   26.7756   -1.5848   -0.7882 O   0  0  0  0  0 15  0  0  0  0  0  0
   23.9046   -3.1976   -1.2494 C   0  0  0  0  0 15  0  0  0  0  0  0
   22.9906   -4.2010   -0.5813 C   0  0  0  0  0 15  0  0  0  0  0  0
   23.3816   -5.0461    0.3462 N   0  0  0  0  0 15  0  0  0  0  0  0
   21.6796   -4.3810   -0.8358 C   0  0  0  0  0 15  0  0  0  0  0  0
   22.3806   -5.7705    0.7339 C   0  0  0  0  0 15  0  0  0  0  0  0
   21.3566   -5.4353    0.0897 N   0  0  0  0  0 15  0  0  0  0  0  0
   25.1586   -2.8969    0.4958 H   0  0  0  0  0 15  0  0  0  0  0  0
   22.6726   -1.5807    0.3726 H   0  0  0  0  0 15  0  0  0  0  0  0
   24.6696   -3.7530   -1.8153 H   0  0  0  0  0 15  0  0  0  0  0  0
   23.3296   -2.5859   -1.9638 H   0  0  0  0  0 15  0  0  0  0  0  0
   24.3406   -5.1287    0.7201 H   0  0  0  0  0 15  0  0  0  0  0  0
   21.0176   -3.8810   -1.5389 H   0  0  0  0  0 15  0  0  0  0  0  0
   22.4076   -6.5504    1.4957 H   0  0  0  0  0 15  0  0  0  0  0  0
   25.1277   -0.2892   -1.5492 N   0  0  0  0  0 15  0  0  0  0  0  0
   26.3577    0.3260   -2.0401 C   0  0  0  0  0 15  0  0  0  0  0  0
   26.7657    1.4896   -1.1665 C   0  0  0  0  0 15  0  0  0  0  0  0
   26.1087    1.8279   -0.1822 O   0  0  0  0  0 15  0  0  0  0  0  0
   26.1707    0.8561   -3.4916 C   0  0  0  0  0 15  0  0  0  0  0  0
   25.8347   -0.1807   -4.5664 C   0  0  0  0  0 15  0  0  0  0  0  0
   26.8317   -1.0051   -5.1009 C   0  0  0  0  0 15  0  0  0  0  0  0
   24.5167   -0.3190   -5.0129 C   0  0  0  0  0 15  0  0  0  0  0  0
   26.5107   -1.9539   -6.0672 C   0  0  0  0  0 15  0  0  0  0  0  0
   24.1977   -1.2712   -5.9773 C   0  0  0  0  0 15  0  0  0  0  0  0
   25.1957   -2.0871   -6.5033 C   0  0  0  0  0 15  0  0  0  0  0  0
   24.8837   -3.0232   -7.4489 O   0  0  0  0  0 15  0  0  0  0  0  0
   24.6157    0.0765   -0.6717 H   0  0  0  0  0 15  0  0  0  0  0  0
   27.1697   -0.4233   -2.0099 H   0  0  0  0  0 15  0  0  0  0  0  0
   25.3997    1.6557   -3.4946 H   0  0  0  0  0 15  0  0  0  0  0  0
   27.0887    1.3859   -3.8151 H   0  0  0  0  0 15  0  0  0  0  0  0
   27.8547   -0.9091   -4.7640 H   0  0  0  0  0 15  0  0  0  0  0  0
   23.7337    0.3061   -4.5998 H   0  0  0  0  0 15  0  0  0  0  0  0
   27.2777   -2.5911   -6.4769 H   0  0  0  0  0 15  0  0  0  0  0  0
   23.1747   -1.3680   -6.3084 H   0  0  0  0  0 15  0  0  0  0  0  0
   23.9427   -2.9716   -7.6265 H   0  0  0  0  0 15  0  0  0  0  0  0
   26.6058    1.5759   -0.0167 N   0  0  0  0  0 15  0  0  0  0  0  0
   27.8548    1.9046    0.6639 C   0  0  0  0  0 15  0  0  0  0  0  0
   28.1678    0.8935    1.7400 C   0  0  0  0  0 15  0  0  0  0  0  0
   29.3738    1.1130    2.4764 O   0  0  0  0  0 15  0  0  0  0  0  0
   27.8298    3.3816    1.2320 C   0  0  0  0  0 15  0  0  0  0  0  0
   27.4378    4.4760    0.1899 C   0  0  0  0  0 15  0  0  0  0  0  0
   29.1818    3.8011    1.8899 C   0  0  0  0  0 15  0  0  0  0  0  0
   27.0888    5.8638    0.7690 C   0  0  0  0  0 15  0  0  0  0  0  0
   26.0188    0.7107    0.2517 H   0  0  0  0  0 15  0  0  0  0  0  0
   28.6698    1.8333   -0.0800 H   0  0  0  0  0 15  0  0  0  0  0  0
   27.0518    3.4018    2.0271 H   0  0  0  0  0 15  0  0  0  0  0  0
   28.2258    4.5711   -0.5818 H   0  0  0  0  0 15  0  0  0  0  0  0
   26.5408    4.1477   -0.3685 H   0  0  0  0  0 15  0  0  0  0  0  0
   29.1378    4.8114    2.3325 H   0  0  0  0  0 15  0  0  0  0  0  0
   29.4808    3.1451    2.7274 H   0  0  0  0  0 15  0  0  0  0  0  0
   30.0138    3.8045    1.1619 H   0  0  0  0  0 15  0  0  0  0  0  0
   26.7528    6.5549   -0.0302 H   0  0  0  0  0 15  0  0  0  0  0  0
   26.2728    5.8050    1.5094 H   0  0  0  0  0 15  0  0  0  0  0  0
   27.9518    6.3456    1.2625 H   0  0  0  0  0 15  0  0  0  0  0  0
   28.0839   -0.2563    1.5550 N   0  0  0  0  0 15  0  0  0  0  0  0
   29.0319   -1.3369    1.9034 C   0  0  0  0  0 15  0  0  0  0  0  0
   30.0259   -1.5030    0.7814 C   0  0  0  0  0 15  0  0  0  0  0  0
   31.2319   -1.5189    0.9660 O   0  0  0  0  0 15  0  0  0  0  0  0
   27.6069   -0.4475    0.6044 H   0  0  0  0  0 15  0  0  0  0  0  0
   29.5779   -1.0157    2.8058 H   0  0  0  0  0 15  0  0  0  0  0  0
   28.3269   -2.6872    2.2064 C   0  0  0  0  0 15  0  0  0  0  0  0
   27.6499   -2.5674    3.0647 H   0  0  0  0  0 15  0  0  0  0  0  0
   29.0899   -3.4324    2.4893 H   0  0  0  0  0 15  0  0  0  0  0  0
   27.5489   -3.2110    1.0196 C   0  0  0  0  0 15  0  0  0  0  0  0
   28.0789   -4.0084    0.2628 O   0  0  0  0  0 15  0  0  0  0  0  0
   26.2849   -2.7900    0.8127 N   0  0  0  0  0 15  0  0  0  0  0  0
   25.8319   -2.1427    1.4299 H   0  0  0  0  0 15  0  0  0  0  0  0
   25.7899   -3.1439    0.0203 H   0  0  0  0  0 15  0  0  0  0  0  0
   29.5620   -1.4872   -0.5215 N   0  0  0  0  0 15  0  0  0  0  0  0
   30.4920   -1.6677   -1.6343 C   0  0  0  0  0 15  0  0  0  0  0  0
   31.4730   -0.5165   -1.6207 C   0  0  0  0  0 15  0  0  0  0  0  0
   32.6580   -0.7500   -1.7913 O   0  0  0  0  0 15  0  0  0  0  0  0
   29.7880   -1.7152   -3.0199 C   0  0  0  0  0 15  0  0  0  0  0  0
   28.7420   -2.8622   -3.1822 C   0  0  0  0  0 15  0  0  0  0  0  0
   28.0680   -2.7606   -4.5792 C   0  0  0  0  0 15  0  0  0  0  0  0
   29.3680   -4.2742   -3.0018 C   0  0  0  0  0 15  0  0  0  0  0  0
   31.0620   -2.5993   -1.4858 H   0  0  0  0  0 15  0  0  0  0  0  0
   28.6080   -1.2509   -0.7134 H   0  0  0  0  0 15  0  0  0  0  0  0
   30.5610   -1.8273   -3.7972 H   0  0  0  0  0 15  0  0  0  0  0  0
   29.2850   -0.7494   -3.1789 H   0  0  0  0  0 15  0  0  0  0  0  0
   27.9440   -2.7457   -2.4291 H   0  0  0  0  0 15  0  0  0  0  0  0
   27.5920   -1.7744   -4.7066 H   0  0  0  0  0 15  0  0  0  0  0  0
   27.2920   -3.5304   -4.6972 H   0  0  0  0  0 15  0  0  0  0  0  0
   28.8160   -2.8926   -5.3774 H   0  0  0  0  0 15  0  0  0  0  0  0
   30.2300   -4.3985   -3.6770 H   0  0  0  0  0 15  0  0  0  0  0  0
   28.6270   -5.0546   -3.2347 H   0  0  0  0  0 15  0  0  0  0  0  0
   29.6970   -4.4329   -1.9652 H   0  0  0  0  0 15  0  0  0  0  0  0
   31.0401    0.7711   -1.3745 N   0  0  0  0  0 15  0  0  0  0  0  0
   31.9501    1.9154   -1.3546 C   0  0  0  0  0 15  0  0  0  0  0  0
   32.9661    1.7213   -0.2541 C   0  0  0  0  0 15  0  0  0  0  0  0
   34.1421    1.9536   -0.4896 O   0  0  0  0  0 15  0  0  0  0  0  0
   31.2071    3.2667   -1.1613 C   0  0  0  0  0 15  0  0  0  0  0  0
   30.2681    3.5872   -2.3583 C   0  0  0  0  0 15  0  0  0  0  0  0
   29.5011    4.8741   -2.1741 C   0  0  0  0  0 15  0  0  0  0  0  0
   29.7241    5.5851   -1.1588 O   0  0  0  0  0 15  0  0  0  0  0  0
   28.6581    5.1854   -3.0562 O   0  0  0  0  0 15  0  0  0  0  0  0
   32.4841    1.9617   -2.3185 H   0  0  0  0  0 15  0  0  0  0  0  0
   30.0691    0.9139   -1.1819 H   0  0  0  0  0 15  0  0  0  0  0  0
   31.9511    4.0750   -1.0734 H   0  0  0  0  0 15  0  0  0  0  0  0
   30.6261    3.2289   -0.2283 H   0  0  0  0  0 15  0  0  0  0  0  0
   29.5331    2.7813   -2.5019 H   0  0  0  0  0 15  0  0  0  0  0  0
   30.8661    3.6724   -3.2771 H   0  0  0  0  0 15  0  0  0  0  0  0
   32.5182    1.2203    0.9973 N   0  0  0  0  0 15  0  0  0  0  0  0
   33.7952    0.9508    1.7093 C   0  0  0  0  0 15  0  0  0  0  0  0
   34.1752   -0.5353    2.0420 C   0  0  0  0  0 15  0  0  0  0  0  0
   33.5232   -1.5022    1.7218 O   0  0  0  0  0 15  0  0  0  0  0  0
   33.7332    1.8439    2.9632 C   0  0  0  0  0 15  0  0  0  0  0  0
   35.0812    2.0973    3.6919 C   0  0  0  0  0 15  0  0  0  0  0  0
   36.1052    1.8180    3.0631 O   0  0  0  0  0 15  0  0  0  0  0  0
   34.9642    2.5702    4.8229 O   0  0  0  0  0 15  0  0  0  0  0  0
   32.0582    0.3572    0.7459 H   0  0  0  0  0 15  0  0  0  0  0  0
   34.6042    1.3300    1.0540 H   0  0  0  0  0 15  0  0  0  0  0  0
   33.3762    2.8493    2.6820 H   0  0  0  0  0 15  0  0  0  0  0  0
   32.9992    1.4660    3.6959 H   0  0  0  0  0 15  0  0  0  0  0  0
   33.9963   -1.1934    1.0293 N   0  0  0  0  0 15  0  0  0  0  0  0
   34.9263   -2.2481    0.6311 C   0  0  0  0  0 15  0  0  0  0  0  0
   35.9073   -1.6624   -0.3601 C   0  0  0  0  0 15  0  0  0  0  0  0
   37.0923   -1.9268   -0.2427 O   0  0  0  0  0 15  0  0  0  0  0  0
   34.2223   -3.4730   -0.0185 C   0  0  0  0  0 15  0  0  0  0  0  0
   33.1763   -4.1854    0.8951 C   0  0  0  0  0 15  0  0  0  0  0  0
   32.5023   -5.3459    0.1106 C   0  0  0  0  0 15  0  0  0  0  0  0
   33.8023   -4.7329    2.2090 C   0  0  0  0  0 15  0  0  0  0  0  0
   35.4963   -2.5837    1.5128 H   0  0  0  0  0 15  0  0  0  0  0  0
   33.0423   -1.2419    0.7288 H   0  0  0  0  0 15  0  0  0  0  0  0
   34.9953   -4.2027   -0.3087 H   0  0  0  0  0 15  0  0  0  0  0  0
   33.7193   -3.1293   -0.9349 H   0  0  0  0  0 15  0  0  0  0  0  0
   32.3783   -3.4745    1.1695 H   0  0  0  0  0 15  0  0  0  0  0  0
   32.0263   -4.9647   -0.8079 H   0  0  0  0  0 15  0  0  0  0  0  0
   31.7263   -5.8318    0.7191 H   0  0  0  0  0 15  0  0  0  0  0  0
   33.2503   -6.1036   -0.1729 H   0  0  0  0  0 15  0  0  0  0  0  0
   34.6643   -5.3801    1.9803 H   0  0  0  0  0 15  0  0  0  0  0  0
   33.0613   -5.3237    2.7695 H   0  0  0  0  0 15  0  0  0  0  0  0
   34.1313   -3.9133    2.8634 H   0  0  0  0  0 15  0  0  0  0  0  0
   35.4744   -0.8072   -1.3536 N   0  0  0  0  0 15  0  0  0  0  0  0
   36.8854   -0.4488   -1.8123 C   0  0  0  0  0 15  0  0  0  0  0  0
   37.2364    1.0293   -1.6703 C   0  0  0  0  0 15  0  0  0  0  0  0
   36.3614    1.7999   -1.2013 O   0  0  0  0  0 15  0  0  0  0  0  0
   36.9564   -0.8078   -3.2903 C   0  0  0  0  0 15  0  0  0  0  0  0
   35.5154   -0.5019   -3.7304 C   0  0  0  0  0 15  0  0  0  0  0  0
   34.6624   -1.0330   -2.5734 C   0  0  0  0  0 15  0  0  0  0  0  0
   37.6134   -0.9988   -1.2333 H   0  0  0  0  0 15  0  0  0  0  0  0
   37.6344   -0.1055   -3.8035 H   0  0  0  0  0 15  0  0  0  0  0  0
   37.1464   -1.8836   -3.3933 H   0  0  0  0  0 15  0  0  0  0  0  0
   35.2474    0.5651   -3.6829 H   0  0  0  0  0 15  0  0  0  0  0  0
   35.3604   -1.0350   -4.6779 H   0  0  0  0  0 15  0  0  0  0  0  0
   33.7244   -0.4553   -2.5060 H   0  0  0  0  0 15  0  0  0  0  0  0
   34.5074   -2.1150   -2.7042 H   0  0  0  0  0 15  0  0  0  0  0  0
   36.9525    1.4729   -0.5608 N   0  0  0  0  0 15  0  0  0  0  0  0
   37.8625    2.3385    0.1880 C   0  0  0  0  0 15  0  0  0  0  0  0
   38.8785    1.4841    0.9083 C   0  0  0  0  0 15  0  0  0  0  0  0
   40.0545    1.8133    0.8764 O   0  0  0  0  0 15  0  0  0  0  0  0
   37.1195    3.2518    1.2025 C   0  0  0  0  0 15  0  0  0  0  0  0
   36.1805    4.2650    0.4892 C   0  0  0  0  0 15  0  0  0  0  0  0
   35.4135    5.1347    1.4554 C   0  0  0  0  0 15  0  0  0  0  0  0
   35.6365    5.0296    2.6905 O   0  0  0  0  0 15  0  0  0  0  0  0
   34.5705    5.9390    0.9780 O   0  0  0  0  0 15  0  0  0  0  0  0
   38.3965    2.9918   -0.5222 H   0  0  0  0  0 15  0  0  0  0  0  0
   35.9815    1.4590   -0.3214 H   0  0  0  0  0 15  0  0  0  0  0  0
   37.8635    3.8158    1.7881 H   0  0  0  0  0 15  0  0  0  0  0  0
   36.5385    2.6247    1.8945 H   0  0  0  0  0 15  0  0  0  0  0  0
   35.4455    3.7385   -0.1376 H   0  0  0  0  0 15  0  0  0  0  0  0
   36.7785    4.9194   -0.1614 H   0  0  0  0  0 15  0  0  0  0  0  0
   38.4306    0.2974    1.5477 N   0  0  0  0  0 15  0  0  0  0  0  0
   39.6556   -0.3184    2.0494 C   0  0  0  0  0 15  0  0  0  0  0  0
   40.0806   -1.4701    1.1734 C   0  0  0  0  0 15  0  0  0  0  0  0
   39.4386   -1.8044    0.1768 O   0  0  0  0  0 15  0  0  0  0  0  0
   39.4866   -0.7557    3.5259 C   0  0  0  0  0 15  0  0  0  0  0  0
   38.5906   -1.8609    3.6803 O   0  0  0  0  0 15  0  0  0  0  0  0
   37.9316   -0.0624    0.6611 H   0  0  0  0  0 15  0  0  0  0  0  0
   40.4616    0.4382    1.9985 H   0  0  0  0  0 15  0  0  0  0  0  0
   40.4716   -1.0455    3.9438 H   0  0  0  0  0 15  0  0  0  0  0  0
   39.1466    0.0867    4.1581 H   0  0  0  0  0 15  0  0  0  0  0  0
   37.7236   -1.5719    3.3815 H   0  0  0  0  0 15  0  0  0  0  0  0
   39.9087   -1.5758    0.0251 N   0  0  0  0  0 15  0  0  0  0  0  0
   41.1557   -1.9163   -0.6544 C   0  0  0  0  0 15  0  0  0  0  0  0
   41.4837   -0.9011   -1.7237 C   0  0  0  0  0 15  0  0  0  0  0  0
   40.7387    0.0906   -1.9549 O   0  0  0  0  0 15  0  0  0  0  0  0
   41.0377   -3.3242   -1.3127 C   0  0  0  0  0 15  0  0  0  0  0  0
   40.7037   -4.4934   -0.3742 C   0  0  0  0  0 15  0  0  0  0  0  0
   39.3657   -4.8106   -0.1159 C   0  0  0  0  0 15  0  0  0  0  0  0
   41.7177   -5.2050    0.2704 C   0  0  0  0  0 15  0  0  0  0  0  0
   39.0457   -5.8129    0.7949 C   0  0  0  0  0 15  0  0  0  0  0  0
   41.3977   -6.2170    1.1693 C   0  0  0  0  0 15  0  0  0  0  0  0
   40.0617   -6.5186    1.4365 C   0  0  0  0  0 15  0  0  0  0  0  0
   39.3317   -0.7012   -0.2395 H   0  0  0  0  0 15  0  0  0  0  0  0
   41.9787   -1.9131    0.0860 H   0  0  0  0  0 15  0  0  0  0  0  0
   40.2837   -3.2899   -2.1278 H   0  0  0  0  0 15  0  0  0  0  0  0
   41.9807   -3.5604   -1.8449 H   0  0  0  0  0 15  0  0  0  0  0  0
   38.5707   -4.2458   -0.5857 H   0  0  0  0  0 15  0  0  0  0  0  0
   42.7547   -4.9623    0.0839 H   0  0  0  0  0 15  0  0  0  0  0  0
   38.0107   -6.0300    1.0097 H   0  0  0  0  0 15  0  0  0  0  0  0
   42.1847   -6.7596    1.6750 H   0  0  0  0  0 15  0  0  0  0  0  0
   39.8117   -7.2934    2.1440 H   0  0  0  0  0 15  0  0  0  0  0  0
   41.3868    0.2480   -1.5564 N   0  0  0  0  0 15  0  0  0  0  0  0
   42.6638    0.9990   -1.6817 C   0  0  0  0  0 15  0  0  0  0  0  0
   43.0438    2.0341   -0.5646 C   0  0  0  0  0 15  0  0  0  0  0  0
   42.3918    2.2438    0.4321 O   0  0  0  0  0 15  0  0  0  0  0  0
   42.6018    1.6333   -3.0842 C   0  0  0  0  0 15  0  0  0  0  0  0
   43.9498    2.1356   -3.6698 C   0  0  0  0  0 15  0  0  0  0  0  0
   44.9738    1.7328   -3.1121 O   0  0  0  0  0 15  0  0  0  0  0  0
   43.8328    2.8753   -4.6475 O   0  0  0  0  0 15  0  0  0  0  0  0
   40.9268    0.4649   -0.6839 H   0  0  0  0  0 15  0  0  0  0  0  0
   43.4728    0.2419   -1.6797 H   0  0  0  0  0 15  0  0  0  0  0  0
   42.2448    0.8846   -3.8117 H   0  0  0  0  0 15  0  0  0  0  0  0
   41.8678    2.4567   -3.1262 H   0  0  0  0  0 15  0  0  0  0  0  0
   42.8649    1.4899    0.5136 N   0  0  0  0  0 15  0  0  0  0  0  0
   43.8279    1.6423    1.5988 C   0  0  0  0  0 15  0  0  0  0  0  0
   44.8279    0.5147    1.5234 C   0  0  0  0  0 15  0  0  0  0  0  0
   46.0179    0.7809    1.5572 O   0  0  0  0  0 15  0  0  0  0  0  0
   43.1499    1.6278    2.9952 C   0  0  0  0  0 15  0  0  0  0  0  0
   44.3429    2.6100    1.4771 H   0  0  0  0  0 15  0  0  0  0  0  0
   41.8959    1.3784    0.7369 H   0  0  0  0  0 15  0  0  0  0  0  0
   42.6309    0.6755    3.1719 H   0  0  0  0  0 15  0  0  0  0  0  0
   42.4159    2.4466    3.0640 H   0  0  0  0  0 15  0  0  0  0  0  0
   43.9059    1.7667    3.7839 H   0  0  0  0  0 15  0  0  0  0  0  0
   44.3430   -0.7638    1.3786 N   0  0  0  0  0 15  0  0  0  0  0  0
   45.7590   -1.0654    1.1883 C   0  0  0  0  0 15  0  0  0  0  0  0
   45.9590   -2.0148    0.0300 C   0  0  0  0  0 15  0  0  0  0  0  0
   45.0150   -2.4458   -0.6274 O   0  0  0  0  0 15  0  0  0  0  0  0
   46.3280   -1.6552    2.5104 C   0  0  0  0  0 15  0  0  0  0  0  0
   47.8760   -1.7774    2.5764 C   0  0  0  0  0 15  0  0  0  0  0  0
   48.3510   -2.4014    3.9000 C   0  0  0  0  0 15  0  0  0  0  0  0
   49.8420   -2.4758    3.9148 N   0  0  0  0  0 15  0  0  0  0  0  0
   50.5770   -2.9673    4.9065 C   0  0  0  0  0 15  0  0  0  0  0  0
   50.0730   -3.4599    6.0022 N   0  0  0  0  0 15  0  0  0  0  0  0
   51.8660   -2.9568    4.7805 N   0  0  0  0  0 15  0  0  0  0  0  0
   44.0170   -0.1336    2.1198 H   0  0  0  0  0 15  0  0  0  0  0  0
   46.2800   -0.1219    0.9401 H   0  0  0  0  0 15  0  0  0  0  0  0
   45.9860   -1.0324    3.3621 H   0  0  0  0  0 15  0  0  0  0  0  0
   45.8600   -2.6472    2.6871 H   0  0  0  0  0 15  0  0  0  0  0  0
   48.2470   -2.3916    1.7287 H   0  0  0  0  0 15  0  0  0  0  0  0
   48.3280   -0.7728    2.4385 H   0  0  0  0  0 15  0  0  0  0  0  0
   47.9720   -1.7936    4.7518 H   0  0  0  0  0 15  0  0  0  0  0  0
   47.9020   -3.4122    4.0109 H   0  0  0  0  0 15  0  0  0  0  0  0
   50.3930   -2.1273    3.1234 H   0  0  0  0  0 15  0  0  0  0  0  0
   50.7060   -3.8192    6.7183 H   0  0  0  0  0 15  0  0  0  0  0  0
   49.0510   -3.4408    6.0385 H   0  0  0  0  0 15  0  0  0  0  0  0
   52.2420   -2.5650    3.9157 H   0  0  0  0  0 15  0  0  0  0  0  0
   52.4150   -3.3367    5.5549 H   0  0  0  0  0 15  0  0  0  0  0  0
   45.8211   -1.2256   -0.9908 N   0  0  0  0  0 15  0  0  0  0  0  0
   46.7531   -0.9553   -2.0834 C   0  0  0  0  0 15  0  0  0  0  0  0
   47.7661    0.0668   -1.6266 C   0  0  0  0  0 15  0  0  0  0  0  0
   48.9551   -0.1674   -1.7771 O   0  0  0  0  0 15  0  0  0  0  0  0
   46.0551   -0.4156   -3.3634 C   0  0  0  0  0 15  0  0  0  0  0  0
   45.2281   -1.4954   -4.1104 C   0  0  0  0  0 15  0  0  0  0  0  0
   44.2871   -0.9624   -5.1732 C   0  0  0  0  0 15  0  0  0  0  0  0
   43.3131   -1.6491   -5.4479 O   0  0  0  0  0 15  0  0  0  0  0  0
   44.5151    0.2151   -5.8010 N   0  0  0  0  0 15  0  0  0  0  0  0
   47.2801   -1.8960   -2.3211 H   0  0  0  0  0 15  0  0  0  0  0  0
   44.8411   -1.1328   -1.1567 H   0  0  0  0  0 15  0  0  0  0  0  0
   46.8331   -0.0442   -4.0468 H   0  0  0  0  0 15  0  0  0  0  0  0
   45.4031    0.4302   -3.0963 H   0  0  0  0  0 15  0  0  0  0  0  0
   44.6231   -2.0400   -3.3731 H   0  0  0  0  0 15  0  0  0  0  0  0
   45.9111   -2.2219   -4.5772 H   0  0  0  0  0 15  0  0  0  0  0  0
   45.3091    0.7898   -5.6016 H   0  0  0  0  0 15  0  0  0  0  0  0
   43.8661    0.5278   -6.4966 H   0  0  0  0  0 15  0  0  0  0  0  0
   47.3381    1.1220   -1.1616 O   0  0  0  0  0 15  0  0  0  0  0  0
   48.0291    1.7192   -0.8923 H   0  0  0  0  0 15  0  0  0  0  0  0
M  END
$$$$
