drugbank_target|O75438 NADH dehydrogenase [ubiquinone] 1 beta subcomplex subunit 1 (DB00157)
 OpenBabel12092119293D

  0  0  0     0  0            999 V3000
M  V30 BEGIN CTAB
M  V30 COUNTS 990 1001 0 0 0
M  V30 BEGIN ATOM
M  V30 1 H -0.908 1.98254 -0.117106 0
M  V30 2 N 0 1.576 0 0
M  V30 3 C 0.933 2.03868 1.02534 0
M  V30 4 C 1.911 0.928543 1.3348 0
M  V30 5 O 3.095 1.19667 1.45644 0
M  V30 6 C 0.222 2.43627 2.35294 0
M  V30 7 C -0.732 3.65373 2.2001 0
M  V30 8 S 0.101 5.13292 1.52614 0
M  V30 9 C 1.257 5.56322 2.86805 0
M  V30 10 H 1.49 2.90518 0.631377 0
M  V30 11 H -0.977 1.52953 0.210867 0
M  V30 12 H 0.981 2.67203 3.11629 0
M  V30 13 H -0.358 1.57376 2.7183 0
M  V30 14 H -1.165 3.90944 3.18086 0
M  V30 15 H -1.563 3.418 1.51819 0
M  V30 16 H 0.729 5.58782 3.83104 0
M  V30 17 H 1.672 6.56266 2.65933 0
M  V30 18 H 2.08 4.83886 2.90714 0
M  V30 19 N 1.4781 -0.272755 1.55222 0
M  V30 20 C 2.7241 -1.00581 1.761 0
M  V30 21 C 3.0571 -1.85932 0.560625 0
M  V30 22 O 2.3321 -1.89416 -0.441801 0
M  V30 23 C 2.6151 -1.88816 3.06628 0
M  V30 24 C 2.4681 -1.06457 4.37021 0
M  V30 25 C 3.7871 -2.8752 3.33197 0
M  V30 26 H 0.9061 -0.364244 0.640699 0
M  V30 27 H 3.5481 -0.278189 1.87952 0
M  V30 28 H 1.6981 -2.50856 2.96654 0
M  V30 29 H 3.3701 -0.464863 4.58952 0
M  V30 30 H 1.6131 -0.368043 4.32236 0
M  V30 31 H 2.2841 -1.71514 5.24678 0
M  V30 32 H 4.7601 -2.35615 3.42965 0
M  V30 33 H 3.6361 -3.46399 4.25792 0
M  V30 34 H 3.8971 -3.62657 2.52849 0
M  V30 35 N 2.9562 -1.48159 -0.537278 0
M  V30 36 C 3.9042 -1.62573 -1.66352 0
M  V30 37 C 4.8982 -0.492366 -1.62087 0
M  V30 38 O 6.1042 -0.670847 -1.67032 0
M  V30 39 H 2.4792 -0.511992 -0.550789 0
M  V30 40 H 4.4502 -2.57176 -1.51337 0
M  V30 41 C 3.1992 -1.67583 -3.04649 0
M  V30 42 H 2.5222 -2.54151 -3.08622 0
M  V30 43 H 3.9622 -1.81713 -3.83088 0
M  V30 44 C 2.4212 -0.413039 -3.34358 0
M  V30 45 O 2.9512 0.477259 -3.98855 0
M  V30 46 N 1.1572 -0.286961 -2.8918 0
M  V30 47 H 0.7042 -1.01241 -2.36871 0
M  V30 48 H 0.6622 0.556963 -3.09427 0
M  V30 49 N 4.4343 0.785586 -1.36625 0
M  V30 50 C 5.3643 1.91259 -1.33949 0
M  V30 51 C 6.3453 1.68795 -0.210325 0
M  V30 52 O 7.5303 1.89854 -0.408561 0
M  V30 53 C 4.6603 3.28339 -1.13186 0
M  V30 54 C 3.6143 3.65335 -2.22967 0
M  V30 55 C 2.9403 5.00806 -1.87342 0
M  V30 56 C 4.2403 3.7352 -3.65075 0
M  V30 57 H 5.9343 1.93755 -2.28253 0
M  V30 58 H 3.4803 0.930788 -1.09874 0
M  V30 59 H 5.4333 4.06804 -1.09948 0
M  V30 60 H 4.1573 3.2624 -0.153332 0
M  V30 61 H 2.8163 2.89169 -2.25337 0
M  V30 62 H 2.4643 4.95233 -0.880545 0
M  V30 63 H 2.1643 5.26529 -2.60846 0
M  V30 64 H 3.6883 5.81687 -1.85667 0
M  V30 65 H 5.1023 4.42168 -3.64911 0
M  V30 66 H 3.4993 4.10731 -4.37516 0
M  V30 67 H 4.5693 2.74527 -3.99703 0
M  V30 68 N 5.9124 1.20967 1.01018 0
M  V30 69 C 6.8424 0.988272 2.11555 0
M  V30 70 C 7.8234 -0.0849778 1.69888 0
M  V30 71 O 9.0084 0.0738202 1.9406 0
M  V30 72 C 6.1384 0.546528 3.42973 0
M  V30 73 C 5.0924 1.56375 3.9841 0
M  V30 74 C 4.4184 0.97842 5.25672 0
M  V30 75 C 5.7184 2.94922 4.31066 0
M  V30 76 H 7.4124 1.91276 2.30334 0
M  V30 77 H 4.9584 0.921073 1.1069 0
M  V30 78 H 6.9114 0.378839 4.19694 0
M  V30 79 H 5.6354 -0.413598 3.23971 0
M  V30 80 H 4.2944 1.71891 3.23804 0
M  V30 81 H 3.9424 0.0101688 5.02999 0
M  V30 82 H 3.6424 1.65784 5.63728 0
M  V30 83 H 5.1664 0.821939 6.05043 0
M  V30 84 H 6.5804 2.8288 4.9865 0
M  V30 85 H 4.9774 3.5983 4.80253 0
M  V30 86 H 6.0474 3.4616 3.39561 0
M  V30 87 N 7.3905 -1.2043 1.01659 0
M  V30 88 C 8.3225 -2.22626 0.544988 0
M  V30 89 C 9.3355 -1.58479 -0.372609 0
M  V30 90 O 10.5245 -1.77679 -0.170958 0
M  V30 91 C 7.6245 -3.38141 -0.22663 0
M  V30 92 C 6.7975 -4.31877 0.692876 0
M  V30 93 C 5.8565 -5.26191 -0.0311616 0
M  V30 94 O 4.8825 -5.6612 0.591343 0
M  V30 95 N 6.0845 -5.65618 -1.30601 0
M  V30 96 H 8.8495 -2.63716 1.42388 0
M  V30 97 H 6.4105 -1.34971 0.894116 0
M  V30 98 H 8.4025 -3.98239 -0.72024 0
M  V30 99 H 6.9725 -2.95943 -1.00681 0
M  V30 100 H 6.1925 -3.69746 1.36679 0
M  V30 101 H 7.4805 -4.91426 1.31824 0
M  V30 102 H 6.8785 -5.3519 -1.83269 0
M  V30 103 H 5.4355 -6.28025 -1.74435 0
M  V30 104 N 8.8686 -0.792821 -1.36206 0
M  V30 105 C 10.1176 -0.363353 -1.984 0
M  V30 106 C 10.4306 1.07172 -1.63626 0
M  V30 107 O 11.6366 1.60362 -2.19081 0
M  V30 108 C 10.0926 -0.59872 -3.54885 0
M  V30 109 C 9.7006 -2.04543 -3.9858 0
M  V30 110 C 11.4446 -0.233926 -4.23855 0
M  V30 111 C 9.3516 -2.22727 -5.47856 0
M  V30 112 H 8.2816 -0.13212 -0.742334 0
M  V30 113 H 10.9326 -0.974935 -1.55458 0
M  V30 114 H 9.3146 0.0826222 -3.95914 0
M  V30 115 H 10.4886 -2.76345 -3.68741 0
M  V30 116 H 8.8036 -2.36879 -3.42458 0
M  V30 117 H 11.4006 -0.348027 -5.33566 0
M  V30 118 H 11.7436 0.818351 -4.08177 0
M  V30 119 H 12.2766 -0.868639 -3.882 0
M  V30 120 H 9.0156 -3.2635 -5.68486 0
M  V30 121 H 8.5356 -1.55434 -5.7931 0
M  V30 122 H 10.2146 -2.03607 -6.14128 0
M  V30 123 N 10.3467 1.47872 -0.545128 0
M  V30 124 C 11.5927 2.02793 -0.0166104 0
M  V30 125 C 11.9257 1.41987 1.32489 0
M  V30 126 O 11.2007 0.571045 1.85928 0
M  V30 127 C 11.4837 3.59989 0.0893294 0
M  V30 128 C 11.3367 4.3125 -1.27841 0
M  V30 129 C 12.6557 4.32606 0.808724 0
M  V30 130 H 9.7747 0.736962 -0.00751035 0
M  V30 131 H 12.4167 1.76433 -0.705085 0
M  V30 132 H 10.5667 3.82579 0.675681 0
M  V30 133 H 12.2387 4.20035 -1.90704 0
M  V30 134 H 10.4817 3.92076 -1.85632 0
M  V30 135 H 11.1527 5.39736 -1.15713 0
M  V30 136 H 13.6287 4.14936 0.310992 0
M  V30 137 H 12.5047 5.42251 0.851782 0
M  V30 138 H 12.7657 4.00963 1.86229 0
M  V30 139 N 11.8248 0.280983 1.55075 0
M  V30 140 C 13.2408 -0.0729964 1.59433 0
M  V30 141 C 13.4408 -1.5411 1.29817 0
M  V30 142 O 12.4968 -2.29086 1.06187 0
M  V30 143 C 13.8098 0.306921 2.9913 0
M  V30 144 C 15.3578 0.254023 3.11968 0
M  V30 145 C 15.8328 0.608467 4.5394 0
M  V30 146 N 17.3238 0.560241 4.59799 0
M  V30 147 C 18.0588 0.80722 5.6769 0
M  V30 148 N 17.5548 1.11912 6.83701 0
M  V30 149 N 19.3478 0.735623 5.57266 0
M  V30 150 H 11.4988 1.238 1.7259 0
M  V30 151 H 13.7618 0.500547 0.805082 0
M  V30 152 H 13.4678 1.32816 3.25657 0
M  V30 153 H 13.3418 -0.349363 3.75579 0
M  V30 154 H 15.7288 -0.75794 2.852 0
M  V30 155 H 15.8098 0.944649 2.37718 0
M  V30 156 H 15.4538 1.61814 4.81434 0
M  V30 157 H 15.3838 -0.104013 5.26497 0
M  V30 158 H 17.8748 0.329288 3.76463 0
M  V30 159 H 18.1878 1.29409 7.61888 0
M  V30 160 H 16.5328 1.15695 6.85303 0
M  V30 161 H 19.7238 0.491752 4.6551 0
M  V30 162 H 19.8968 0.931482 6.4127 0
M  V30 163 N 13.3029 -1.57598 0.00835791 0
M  V30 164 C 14.5799 -1.82172 -0.712235 0
M  V30 165 C 14.9599 -0.887873 -1.9152 0
M  V30 166 O 14.3079 0.06146 -2.28417 0
M  V30 167 C 14.5179 -3.30875 -1.11008 0
M  V30 168 C 15.8659 -3.96826 -1.51044 0
M  V30 169 O 16.8899 -3.35248 -1.20364 0
M  V30 170 O 15.7489 -5.05318 -2.08125 0
M  V30 171 H 12.8429 -0.750435 -0.347529 0
M  V30 172 H 15.3889 -1.69665 0.0344523 0
M  V30 173 H 14.1609 -3.90481 -0.252982 0
M  V30 174 H 13.7839 -3.48412 -1.9156 0
M  V30 175 N 14.781 0.264519 -1.55364 0
M  V30 176 C 15.731 1.32966 -1.85214 0
M  V30 177 C 16.715 1.44306 -0.711653 0
M  V30 178 O 17.907 1.47844 -0.973192 0
M  V30 179 C 15.036 2.68839 -2.13495 0
M  V30 180 C 14.122 2.61575 -3.33825 0
M  V30 181 N 14.513 2.23933 -4.53528 0
M  V30 182 C 12.811 2.92621 -3.36584 0
M  V30 183 C 13.512 2.26868 -5.35636 0
M  V30 184 N 12.488 2.65677 -4.74254 0
M  V30 185 H 16.29 1.02884 -2.75304 0
M  V30 186 H 13.804 0.473157 -1.55354 0
M  V30 187 H 15.801 3.45685 -2.33039 0
M  V30 188 H 14.461 2.99802 -1.24694 0
M  V30 189 H 15.472 1.95769 -4.79474 0
M  V30 190 H 12.149 3.2824 -2.58002 0
M  V30 191 H 13.539 2.00254 -6.41364 0
M  V30 192 N 16.2591 1.48442 0.529413 0
M  V30 193 C 17.5051 1.57699 1.28463 0
M  V30 194 C 17.8601 0.247913 1.90796 0
M  V30 195 O 17.1531 -0.749279 1.76342 0
M  V30 196 C 17.3471 2.6523 2.39558 0
M  V30 197 C 17.1761 4.08464 1.88114 0
M  V30 198 C 15.9461 4.75596 1.70693 0
M  V30 199 C 18.1441 4.94613 1.40935 0
M  V30 200 N 16.1261 6.03245 1.13881 0
M  V30 201 C 17.4971 6.12511 0.960734 0
M  V30 202 C 19.5521 4.80833 1.29243 0
M  V30 203 C 18.2551 7.18149 0.406792 0
M  V30 204 C 20.2811 5.86593 0.752487 0
M  V30 205 C 19.6431 7.037 0.313946 0
M  V30 206 H 15.7421 0.631608 0.46108 0
M  V30 207 H 18.3261 1.85325 0.596886 0
M  V30 208 H 16.4971 2.39425 3.05827 0
M  V30 209 H 18.2291 2.64169 3.06589 0
M  V30 210 H 14.9841 4.31938 1.94232 0
M  V30 211 H 15.4081 6.71324 0.874831 0
M  V30 212 H 20.0501 3.90635 1.61754 0
M  V30 213 H 17.7681 8.0807 0.0693671 0
M  V30 214 H 21.3541 5.77985 0.665192 0
M  V30 215 H 20.2341 7.8414 -0.0973632 0
M  V30 216 N 17.7372 -0.778329 1.37039 0
M  V30 217 C 18.9832 -1.53892 1.32079 0
M  V30 218 C 19.3162 -1.9396 -0.0965386 0
M  V30 219 O 18.5912 -1.63568 -1.05242 0
M  V30 220 C 18.8742 -2.80847 2.25382 0
M  V30 221 C 18.7272 -2.47076 3.75864 0
M  V30 222 C 20.0462 -3.82741 2.1725 0
M  V30 223 H 17.1652 -0.558303 0.48111 0
M  V30 224 H 19.8072 -0.893397 1.67685 0
M  V30 225 H 17.9572 -3.35931 1.95148 0
M  V30 226 H 19.6292 -1.97957 4.16666 0
M  V30 227 H 17.8722 -1.79863 3.94755 0
M  V30 228 H 18.5432 -3.37798 4.36574 0
M  V30 229 H 21.0192 -3.37133 2.43887 0
M  V30 230 H 19.8952 -4.69303 2.84686 0
M  V30 231 H 20.1562 -4.2652 1.16331 0
M  V30 232 N 19.2153 -1.21501 -1.00376 0
M  V30 233 C 20.1653 -0.942843 -2.07592 0
M  V30 234 C 21.1493 0.102384 -1.60574 0
M  V30 235 O 22.3413 -0.10671 -1.76678 0
M  V30 236 C 19.4703 -0.510729 -3.3948 0
M  V30 237 C 18.5563 -1.59009 -3.93163 0
M  V30 238 N 18.9473 -2.81544 -4.20198 0
M  V30 239 C 17.2453 -1.45925 -4.21452 0
M  V30 240 C 17.9463 -3.51261 -4.63671 0
M  V30 241 N 16.9223 -2.78703 -4.66718 0
M  V30 242 H 20.7243 -1.87378 -2.26421 0
M  V30 243 H 18.2383 -1.11093 -1.18458 0
M  V30 244 H 20.2353 -0.297101 -4.1584 0
M  V30 245 H 18.8953 0.413436 -3.22057 0
M  V30 246 H 19.9063 -3.18075 -4.08716 0
M  V30 247 H 16.5833 -0.600467 -4.13159 0
M  V30 248 H 17.9733 -4.56183 -4.93302 0
M  V30 249 N 20.6934 1.19889 -1.02296 0
M  V30 250 C 21.9394 1.89701 -0.717033 0
M  V30 251 C 22.2724 1.7905 0.751989 0
M  V30 252 O 21.5474 1.17891 1.547 0
M  V30 253 C 21.8304 3.40858 -1.16136 0
M  V30 254 C 21.6834 3.60411 -2.69117 0
M  V30 255 C 23.0024 4.33876 -0.737549 0
M  V30 256 H 20.1214 0.688874 -0.261957 0
M  V30 257 H 22.7634 1.41154 -1.27183 0
M  V30 258 H 20.9134 3.82335 -0.689342 0
M  V30 259 H 22.5854 3.28145 -3.2422 0
M  V30 260 H 20.8284 3.03665 -3.0979 0
M  V30 261 H 21.4994 4.66396 -2.95261 0
M  V30 262 H 23.9754 4.00081 -1.14344 0
M  V30 263 H 22.8514 5.38242 -1.0764 0
M  V30 264 H 23.1124 4.40628 0.360436 0
M  V30 265 N 22.1715 0.800033 1.35784 0
M  V30 266 C 23.1015 0.220184 2.3246 0
M  V30 267 C 24.0825 -0.65073 1.57161 0
M  V30 268 O 25.2675 -0.582359 1.85263 0
M  V30 269 C 22.3975 -0.637353 3.41402 0
M  V30 270 C 21.3515 0.134531 4.27789 0
M  V30 271 C 20.6775 -0.844285 5.27992 0
M  V30 272 C 21.9775 1.32979 5.05088 0
M  V30 273 H 23.6715 1.02787 2.81203 0
M  V30 274 H 21.2175 0.495717 1.35199 0
M  V30 275 H 23.1705 -1.05302 4.08031 0
M  V30 276 H 21.8945 -1.47785 2.91251 0
M  V30 277 H 20.5535 0.531296 3.6273 0
M  V30 278 H 20.2015 -1.68011 4.74111 0
M  V30 279 H 19.9015 -0.332184 5.8666 0
M  V30 280 H 21.4255 -1.2583 5.97494 0
M  V30 281 H 22.8395 0.98934 5.64699 0
M  V30 282 H 21.2365 1.77593 5.7322 0
M  V30 283 H 22.3065 2.11978 4.36111 0
M  V30 284 N 23.6496 -1.47581 0.552962 0
M  V30 285 C 24.8956 -2.02782 0.0273648 0
M  V30 286 C 25.2286 -1.42687 -1.31734 0
M  V30 287 O 24.5036 -0.580897 -1.85623 0
M  V30 288 C 24.7866 -3.60031 -0.0702371 0
M  V30 289 C 24.6396 -4.30566 1.30126 0
M  V30 290 C 25.9586 -4.33028 -0.785771 0
M  V30 291 H 23.0776 -0.736912 0.0114185 0
M  V30 292 H 25.7196 -1.76056 0.714432 0
M  V30 293 H 23.8696 -3.82932 -0.655382 0
M  V30 294 H 25.5416 -4.19018 1.92929 0
M  V30 295 H 23.7846 -3.91086 1.87709 0
M  V30 296 H 24.4556 -5.39114 1.18573 0
M  V30 297 H 26.9316 -4.15095 -0.288982 0
M  V30 298 H 25.8076 -5.42695 -0.823013 0
M  V30 299 H 26.0686 -4.01945 -1.841 0
M  V30 300 N 25.1277 -0.289203 -1.54924 0
M  V30 301 C 26.5387 0.205791 -1.85562 0
M  V30 302 C 26.8897 1.54351 -1.2112 0
M  V30 303 O 26.0147 2.10435 -0.504601 0
M  V30 304 C 26.6097 0.380177 -3.3666 0
M  V30 305 C 25.1687 0.819395 -3.67373 0
M  V30 306 C 24.3157 -0.079159 -2.77187 0
M  V30 307 H 27.2667 -0.510577 -1.50262 0
M  V30 308 H 27.2877 1.21659 -3.60526 0
M  V30 309 H 26.7997 -0.593589 -3.83534 0
M  V30 310 H 24.9007 1.80413 -3.26009 0
M  V30 311 H 25.0137 0.646957 -4.74712 0
M  V30 312 H 23.3777 0.439565 -2.50878 0
M  V30 313 H 24.1607 -1.04906 -3.26878 0
M  V30 314 N 26.6058 1.57591 -0.0167156 0
M  V30 315 C 27.5388 2.04944 1.00366 0
M  V30 316 C 28.5168 0.942648 1.32487 0
M  V30 317 O 29.7008 1.21205 1.44367 0
M  V30 318 C 26.8278 2.46109 2.32697 0
M  V30 319 C 25.8738 3.67686 2.16123 0
M  V30 320 S 26.7068 5.14882 1.47161 0
M  V30 321 C 27.8628 5.59332 2.80888 0
M  V30 322 H 28.0958 2.91172 0.600528 0
M  V30 323 H 25.6288 1.53168 0.194632 0
M  V30 324 H 27.5868 2.70493 3.08778 0
M  V30 325 H 26.2478 1.6025 2.70146 0
M  V30 326 H 25.4408 3.94296 3.13922 0
M  V30 327 H 25.0428 3.43391 1.48185 0
M  V30 328 H 27.3348 5.62814 3.77156 0
M  V30 329 H 28.2778 6.5905 2.58958 0
M  V30 330 H 28.6858 4.86942 2.85565 0
M  V30 331 N 28.0839 -0.256276 1.55502 0
M  V30 332 C 29.3319 -0.983672 1.76545 0
M  V30 333 C 29.6529 -1.86206 0.578982 0
M  V30 334 O 28.9229 -1.91656 -0.405577 0
M  V30 335 H 27.5029 -0.366191 0.651086 0
M  V30 336 H 30.1649 -0.276479 1.92929 0
M  V30 337 H 29.2609 -1.61087 2.67315 0
M  V30 338 N 29.562 -1.4872 -0.521534 0
M  V30 339 C 30.809 -1.57168 -1.27689 0
M  V30 340 C 31.137 -0.249275 -1.92896 0
M  V30 341 O 30.392 0.761162 -1.80291 0
M  V30 342 C 30.691 -2.66497 -2.38148 0
M  V30 343 C 30.357 -4.08664 -1.90538 0
M  V30 344 C 29.019 -4.47357 -1.77271 0
M  V30 345 C 31.371 -4.97724 -1.54663 0
M  V30 346 C 28.699 -5.72905 -1.26478 0
M  V30 347 C 31.051 -6.2377 -1.05329 0
M  V30 348 C 29.715 -6.61311 -0.906861 0
M  V30 349 H 28.985 -0.575117 -0.467249 0
M  V30 350 H 31.632 -1.82472 -0.581051 0
M  V30 351 H 29.937 -2.35085 -3.13437 0
M  V30 352 H 31.634 -2.70246 -2.96257 0
M  V30 353 H 28.224 -3.78111 -2.01816 0
M  V30 354 H 32.408 -4.68501 -1.63768 0
M  V30 355 H 27.664 -6.00709 -1.13835 0
M  V30 356 H 31.838 -6.9217 -0.76644 0
M  V30 357 H 29.465 -7.5848 -0.511083 0
M  V30 358 N 31.0401 0.771051 -1.3745 0
M  V30 359 C 32.2861 1.5319 -1.32894 0
M  V30 360 C 32.6191 1.94008 0.0862511 0
M  V30 361 O 31.8941 1.64124 1.04373 0
M  V30 362 C 32.1771 2.79648 -2.26868 0
M  V30 363 C 32.0301 2.45079 -3.77169 0
M  V30 364 C 33.3491 3.81583 -2.19277 0
M  V30 365 H 30.4681 0.555744 -0.484064 0
M  V30 366 H 33.1101 0.884492 -1.68157 0
M  V30 367 H 31.2601 3.34891 -1.96926 0
M  V30 368 H 32.9321 1.95745 -4.1771 0
M  V30 369 H 31.1751 1.77767 -3.95704 0
M  V30 370 H 31.8461 3.35478 -4.38359 0
M  V30 371 H 34.3221 3.35835 -2.45671 0
M  V30 372 H 33.1981 4.67787 -2.87171 0
M  V30 373 H 33.4591 4.25897 -1.18592 0
M  V30 374 N 32.5182 1.22032 0.997298 0
M  V30 375 C 33.7672 1.03637 1.73038 0
M  V30 376 C 34.0802 -0.429475 1.90827 0
M  V30 377 O 35.2862 -0.732995 2.61418 0
M  V30 378 C 33.7422 1.80582 3.11317 0
M  V30 379 C 33.3502 3.31387 3.01474 0
M  V30 380 C 35.0942 1.70621 3.88701 0
M  V30 381 C 33.0012 4.00791 4.3488 0
M  V30 382 H 31.9312 0.384179 0.648785 0
M  V30 383 H 34.5822 1.4584 1.11368 0
M  V30 384 H 32.9642 1.31175 3.73643 0
M  V30 385 H 34.1382 3.88155 2.4834 0
M  V30 386 H 32.4532 3.41976 2.37575 0
M  V30 387 H 35.0502 2.19799 4.87434 0
M  V30 388 H 35.3932 0.665823 4.10941 0
M  V30 389 H 35.9262 2.17547 3.33044 0
M  V30 390 H 32.6652 5.05064 4.1784 0
M  V30 391 H 32.1852 3.48811 4.87945 0
M  V30 392 H 33.8642 4.06139 5.03647 0
M  V30 393 N 33.9963 -1.19345 1.0293 0
M  V30 394 C 35.2443 -1.88665 0.724574 0
M  V30 395 C 35.5653 -1.80036 -0.749144 0
M  V30 396 O 34.8353 -1.2111 -1.53978 0
M  V30 397 H 33.4153 -0.698406 0.265025 0
M  V30 398 H 36.0773 -1.44885 1.30362 0
M  V30 399 H 35.1733 -2.94987 1.01926 0
M  V30 400 N 35.4744 -0.807222 -1.35358 0
M  V30 401 C 36.7144 -0.393534 -2.00576 0
M  V30 402 C 37.0784 1.0203 -1.62647 0
M  V30 403 O 38.2794 1.53603 -2.20589 0
M  V30 404 C 36.5504 -0.572017 -3.52793 0
M  V30 405 S 38.1094 -0.248845 -4.38094 0
M  V30 406 H 34.9274 -0.149425 -0.695121 0
M  V30 407 H 37.5294 -1.04961 -1.64935 0
M  V30 408 H 36.2334 -1.60097 -3.77885 0
M  V30 409 H 35.7644 0.099359 -3.93275 0
M  V30 410 H 37.7794 0.943253 -4.87152 0
M  V30 411 N 36.9525 1.47285 -0.560781 0
M  V30 412 C 38.1825 2.06555 -0.0429638 0
M  V30 413 C 38.5905 1.41339 1.25777 0
M  V30 414 O 37.9335 0.505182 1.76617 0
M  V30 415 C 37.9955 3.58827 0.219887 0
M  V30 416 C 37.6595 4.46105 -0.991944 0
M  V30 417 C 38.6565 4.84 -1.89843 0
M  V30 418 C 36.3415 4.87567 -1.20762 0
M  V30 419 C 38.3355 5.6216 -3.00425 0
M  V30 420 C 36.0225 5.65491 -2.31653 0
M  V30 421 C 37.0205 6.02699 -3.21315 0
M  V30 422 O 36.7085 6.79052 -4.30283 0
M  V30 423 H 36.4405 0.674537 -0.0444468 0
M  V30 424 H 38.9945 1.90225 -0.774818 0
M  V30 425 H 37.2245 3.73383 1.00609 0
M  V30 426 H 38.9135 4.00103 0.683522 0
M  V30 427 H 39.6795 4.52564 -1.74387 0
M  V30 428 H 35.5585 4.5807 -0.518893 0
M  V30 429 H 39.1025 5.9112 -3.70436 0
M  V30 430 H 34.9995 5.9634 -2.47081 0
M  V30 431 H 35.7675 6.9745 -4.28376 0
M  V30 432 N 38.4306 0.297415 1.54768 0
M  V30 433 C 39.3606 -0.573494 2.26348 0
M  V30 434 C 40.3416 -1.14085 1.26169 0
M  V30 435 O 41.5266 -1.17086 1.54934 0
M  V30 436 C 38.6566 -1.74716 3.00153 0
M  V30 437 C 37.6106 -1.31032 4.07449 0
M  V30 438 C 36.9366 -2.56887 4.68949 0
M  V30 439 C 38.2366 -0.444183 5.20408 0
M  V30 440 H 39.9306 0.0235131 2.99391 0
M  V30 441 H 37.4766 0.0127488 1.43994 0
M  V30 442 H 39.4296 -2.3625 3.48947 0
M  V30 443 H 38.1536 -2.37035 2.24682 0
M  V30 444 H 36.8126 -0.718066 3.59499 0
M  V30 445 H 36.4606 -3.17512 3.90122 0
M  V30 446 H 36.1606 -2.2836 5.41411 0
M  V30 447 H 37.6846 -3.19229 5.20505 0
M  V30 448 H 39.0986 -0.9651 5.65118 0
M  V30 449 H 37.4956 -0.252846 5.99567 0
M  V30 450 H 38.5656 0.531609 4.81977 0
M  V30 451 N 39.9087 -1.5758 0.0250728 0
M  V30 452 C 41.1857 -1.82917 -0.692873 0
M  V30 453 C 41.5657 -0.908137 -1.90568 0
M  V30 454 O 40.9137 0.0372298 -2.2847 0
M  V30 455 C 41.1237 -3.32034 -1.07492 0
M  V30 456 C 42.4717 -3.98406 -1.46826 0
M  V30 457 O 43.4957 -3.36505 -1.16801 0
M  V30 458 O 42.3547 -5.07497 -2.02754 0
M  V30 459 H 39.4487 -0.754079 -0.33955 0
M  V30 460 H 41.9947 -1.69619 0.0524456 0
M  V30 461 H 40.7667 -3.90728 -0.211552 0
M  V30 462 H 40.3897 -3.50424 -1.87854 0
M  V30 463 N 41.3868 0.248026 -1.55636 0
M  V30 464 C 42.8028 0.596483 -1.48035 0
M  V30 465 C 43.0028 1.88386 -0.715039 0
M  V30 466 O 42.0588 2.51319 -0.243944 0
M  V30 467 C 43.3718 0.700258 -2.92433 0
M  V30 468 C 44.9198 0.792659 -3.02797 0
M  V30 469 C 45.3948 0.928005 -4.485 0
M  V30 470 N 46.8858 0.992903 -4.52433 0
M  V30 471 C 47.6208 1.11687 -5.62418 0
M  V30 472 N 47.1168 1.20645 -6.82214 0
M  V30 473 N 48.9098 1.14994 -5.50212 0
M  V30 474 H 41.0608 -0.597109 -2.03834 0
M  V30 475 H 43.3238 -0.205925 -0.925364 0
M  V30 476 H 43.0298 -0.175658 -3.51261 0
M  V30 477 H 42.9038 1.57255 -3.42857 0
M  V30 478 H 45.2908 1.65903 -2.4405 0
M  V30 479 H 45.3718 -0.104762 -2.55585 0
M  V30 480 H 45.0158 0.0661971 -5.07857 0
M  V30 481 H 44.9458 1.84045 -4.93391 0
M  V30 482 H 47.4368 0.935064 -3.66149 0
M  V30 483 H 47.7498 1.30008 -7.61786 0
M  V30 484 H 46.0948 1.17605 -6.84977 0
M  V30 485 H 49.2858 1.07643 -4.55555 0
M  V30 486 H 49.4588 1.24311 -6.35965 0
M  V30 487 N 42.8649 1.48995 0.513639 0
M  V30 488 C 43.8119 1.6473 1.61656 0
M  V30 489 C 44.7819 0.488984 1.58739 0
M  V30 490 O 45.9669 0.714478 1.76918 0
M  V30 491 C 43.1069 1.7082 2.99858 0
M  V30 492 C 42.2199 2.9787 3.12885 0
M  V30 493 C 41.3549 2.95017 4.41744 0
M  V30 494 C 40.3939 4.16702 4.48359 0
M  V30 495 N 39.5309 4.11832 5.68629 0
M  V30 496 H 44.3709 2.58909 1.47547 0
M  V30 497 H 41.9079 1.28382 0.71808 0
M  V30 498 H 43.8659 1.72331 3.79944 0
M  V30 499 H 42.4959 0.801181 3.12699 0
M  V30 500 H 41.5479 3.06029 2.25944 0
M  V30 501 H 42.8599 3.8786 3.13633 0
M  V30 502 H 42.0139 2.95021 5.30139 0
M  V30 503 H 40.7529 2.02784 4.43542 0
M  V30 504 H 39.7579 4.16955 3.58369 0
M  V30 505 H 40.9829 5.10113 4.48287 0
M  V30 506 H 38.9289 3.22428 5.71293 0
M  V30 507 H 38.8459 4.95543 5.7094 0
M  V30 508 H 40.1139 4.1592 6.59266 0
M  V30 509 N 44.343 -0.763751 1.37857 0
M  V30 510 C 45.568 -1.55805 1.36893 0
M  V30 511 C 45.993 -1.88054 -0.0416135 0
M  V30 512 O 45.351 -1.49825 -1.02089 0
M  V30 513 C 45.399 -2.84012 2.22192 0
M  V30 514 O 44.503 -3.78732 1.63204 0
M  V30 515 H 43.844 -0.471638 0.46739 0
M  V30 516 H 46.374 -0.944657 1.81487 0
M  V30 517 H 46.384 -3.33037 2.35691 0
M  V30 518 H 45.059 -2.59869 3.24716 0
M  V30 519 H 43.636 -3.37402 1.58791 0
M  V30 520 N 45.8211 -1.22559 -0.990812 0
M  V30 521 C 47.0981 -0.959875 -1.70428 0
M  V30 522 C 47.4781 0.524455 -2.04481 0
M  V30 523 O 46.8261 1.49302 -1.72977 0
M  V30 524 C 47.0361 -1.85955 -2.95333 0
M  V30 525 C 48.3841 -2.11687 -3.68068 0
M  V30 526 O 49.4081 -1.8342 -3.05345 0
M  V30 527 O 48.2671 -2.59572 -4.80921 0
M  V30 528 H 45.3611 -0.361154 -0.743974 0
M  V30 529 H 47.9071 -1.33554 -1.04697 0
M  V30 530 H 46.6791 -2.86346 -2.66687 0
M  V30 531 H 46.3021 -1.4856 -3.68803 0
M  V30 532 N 47.2992 1.18797 -1.03562 0
M  V30 533 C 48.2092 2.25913 -0.632505 0
M  V30 534 C 49.2252 1.70668 0.338882 0
M  V30 535 O 50.4012 2.00453 0.195076 0
M  V30 536 C 47.4662 3.467 0.00350942 0
M  V30 537 C 46.5272 4.17098 -1.01624 0
M  V30 538 C 45.7602 5.32119 -0.410478 0
M  V30 539 O 45.9832 5.64976 0.784725 0
M  V30 540 O 44.9172 5.9107 -1.13667 0
M  V30 541 H 48.7432 2.62648 -1.52478 0
M  V30 542 H 46.3282 1.25781 -0.806195 0
M  V30 543 H 48.2102 4.19878 0.35781 0
M  V30 544 H 46.8852 3.11798 0.869686 0
M  V30 545 H 45.7922 3.4601 -1.42224 0
M  V30 546 H 47.1252 4.55987 -1.85301 0
M  V30 547 N 48.7773 0.814389 1.34928 0
M  V30 548 C 50.1933 0.499084 1.51596 0
M  V30 549 C 50.3933 -0.978319 1.76157 0
M  V30 550 O 49.4493 -1.76309 1.80752 0
M  V30 551 C 50.7623 1.35121 2.68631 0
M  V30 552 C 52.3103 1.34746 2.82511 0
M  V30 553 C 52.7853 2.18388 4.0258 0
M  V30 554 N 54.2763 2.15966 4.09772 0
M  V30 555 C 55.0113 2.77437 5.01813 0
M  V30 556 N 54.5073 3.47866 5.99134 0
M  V30 557 N 56.3003 2.67037 4.94619 0
M  V30 558 H 48.4513 1.7711 1.17243 0
M  V30 559 H 50.7143 0.754256 0.574284 0
M  V30 560 H 50.4203 2.40001 2.57085 0
M  V30 561 H 50.2943 1.00991 3.63429 0
M  V30 562 H 52.6813 0.30648 2.93504 0
M  V30 563 H 52.7623 1.72869 1.88547 0
M  V30 564 H 52.4063 3.2253 3.92347 0
M  V30 565 H 52.3363 1.77621 4.9574 0
M  V30 566 H 54.8273 1.64729 3.40107 0
M  V30 567 H 55.1403 3.92038 6.65977 0
M  V30 568 H 53.4853 3.51972 5.99284 0
M  V30 569 H 56.6763 2.11597 4.17546 0
M  V30 570 H 56.8493 3.15232 5.66156 0
M  V30 571 N 50.2554 -1.46986 0.568584 0
M  V30 572 C 51.1854 -2.32946 -0.160753 0
M  V30 573 C 52.1664 -1.44487 -0.897631 0
M  V30 574 O 53.3514 -1.73327 -0.875867 0
M  V30 575 C 50.4814 -3.26494 -1.18403 0
M  V30 576 C 49.4354 -4.24282 -0.562895 0
M  V30 577 C 48.7614 -5.07236 -1.69163 0
M  V30 578 C 50.0614 -5.19989 0.490761 0
M  V30 579 H 51.7554 -2.94175 0.556916 0
M  V30 580 H 49.3014 -1.4146 0.26927 0
M  V30 581 H 51.2544 -3.85477 -1.70251 0
M  V30 582 H 49.9784 -2.63343 -1.93179 0
M  V30 583 H 48.6374 -3.66541 -0.0656164 0
M  V30 584 H 48.2854 -4.4048 -2.42871 0
M  V30 585 H 47.9854 -5.7345 -1.28174 0
M  V30 586 H 49.5094 -5.6908 -2.21314 0
M  V30 587 H 50.9234 -5.73271 0.0579047 0
M  V30 588 H 49.3204 -5.94469 0.820165 0
M  V30 589 H 50.3904 -4.64777 1.3824 0
M  V30 590 N 51.7335 -0.305618 -1.54608 0
M  V30 591 C 52.9615 0.304775 -2.04643 0
M  V30 592 C 53.3765 1.47167 -1.18268 0
M  V30 593 O 52.7335 1.81296 -0.209328 0
M  V30 594 C 52.7845 0.756564 -3.53495 0
M  V30 595 O 52.5055 -0.36389 -4.36586 0
M  V30 596 C 54.0065 1.43163 -4.19546 0
M  V30 597 H 51.2265 0.0655481 -0.667791 0
M  V30 598 H 53.7705 -0.446592 -1.99564 0
M  V30 599 H 51.9255 1.45794 -3.58919 0
M  V30 600 H 52.3395 -0.0113121 -5.24499 0
M  V30 601 H 53.8135 1.69886 -5.25207 0
M  V30 602 H 54.2905 2.37318 -3.69563 0
M  V30 603 H 54.8965 0.773307 -4.18211 0
M  V30 604 N 53.2116 1.57565 -0.0334293 0
M  V30 605 C 54.1746 2.09393 0.932048 0
M  V30 606 C 55.1746 1.00986 1.25134 0
M  V30 607 O 56.3646 1.27129 1.19096 0
M  V30 608 C 53.4966 2.56338 2.2473 0
M  V30 609 H 54.6896 2.95984 0.483085 0
M  V30 610 H 52.2426 1.54819 0.21468 0
M  V30 611 H 52.9776 1.7309 2.74245 0
M  V30 612 H 52.7626 3.35542 2.02865 0
M  V30 613 H 54.2526 2.96646 2.93923 0
M  V30 614 N 54.6897 -0.239769 1.55765 0
M  V30 615 C 55.9367 -0.966801 1.7793 0
M  V30 616 C 56.2647 -1.85046 0.599015 0
M  V30 617 O 55.5197 -1.91197 -0.417395 0
M  V30 618 C 55.8187 -1.852 3.05672 0
M  V30 619 C 55.4847 -1.1231 4.36689 0
M  V30 620 C 54.1467 -0.921689 4.72291 0
M  V30 621 C 56.4987 -0.607019 5.17653 0
M  V30 622 C 53.8267 -0.191996 5.86386 0
M  V30 623 C 56.1787 0.109241 6.32506 0
M  V30 624 C 54.8427 0.322073 6.66723 0
M  V30 625 H 54.1127 -0.353778 0.651093 0
M  V30 626 H 56.7597 -0.23634 1.90036 0
M  V30 627 H 55.0647 -2.64975 2.8861 0
M  V30 628 H 56.7617 -2.41635 3.20021 0
M  V30 629 H 53.3517 -1.29004 4.08725 0
M  V30 630 H 57.5357 -0.750153 4.90598 0
M  V30 631 H 52.7917 -0.0166949 6.11398 0
M  V30 632 H 56.9657 0.516737 6.9448 0
M  V30 633 H 54.5927 0.88944 7.54979 0
M  V30 634 N 56.1678 -1.49265 -0.50573 0
M  V30 635 C 57.5838 -1.35923 -0.836486 0
M  V30 636 C 57.7838 -0.388704 -1.97715 0
M  V30 637 O 56.8398 0.181336 -2.51848 0
M  V30 638 C 58.1528 -2.76531 -1.18115 0
M  V30 639 C 59.7008 -2.85197 -1.28964 0
M  V30 640 C 60.1758 -4.26561 -1.66761 0
M  V30 641 N 61.6668 -4.2935 -1.73819 0
M  V30 642 C 62.4018 -5.35693 -2.045 0
M  V30 643 N 61.8978 -6.52287 -2.33438 0
M  V30 644 N 63.6908 -5.23105 -2.05711 0
M  V30 645 H 55.8418 -2.10965 0.246519 0
M  V30 646 H 58.1048 -0.9468 0.0476887 0
M  V30 647 H 57.8108 -3.49226 -0.416398 0
M  V30 648 H 57.6848 -3.11599 -2.1257 0
M  V30 649 H 60.0718 -2.12742 -2.04511 0
M  V30 650 H 60.1528 -2.53718 -0.325704 0
M  V30 651 H 59.7968 -4.99541 -0.917656 0
M  V30 652 H 59.7268 -4.55502 -2.64246 0
M  V30 653 H 62.2178 -3.4526 -1.53635 0
M  V30 654 H 62.5308 -7.29158 -2.56024 0
M  V30 655 H 60.8758 -6.55521 -2.30905 0
M  V30 656 H 64.0668 -4.31026 -1.82577 0
M  V30 657 H 64.2398 -6.06078 -2.29289 0
M  V30 658 N 57.6459 0.756429 -1.3826 0
M  V30 659 C 58.5939 1.89149 -1.35372 0
M  V30 660 C 59.5879 1.67691 -0.24004 0
M  V30 661 O 60.7939 1.75294 -0.408919 0
M  V30 662 H 57.1689 0.622271 -0.422236 0
M  V30 663 H 59.1399 1.88701 -2.31159 0
M  V30 664 C 57.8889 3.26599 -1.19284 0
M  V30 665 H 57.2119 3.43695 -2.0424 0
M  V30 666 H 58.6519 4.06274 -1.21316 0
M  V30 667 C 57.1109 3.3675 0.100454 0
M  V30 668 O 57.6409 3.86951 1.07851 0
M  V30 669 N 55.8469 2.90179 0.15633 0
M  V30 670 H 55.3939 2.49517 -0.640253 0
M  V30 671 H 55.3519 2.97352 1.02123 0
M  V30 672 N 59.124 1.23083 0.984299 0
M  V30 673 C 60.071 1.00854 2.07598 0
M  V30 674 C 61.041 -0.0726709 1.65941 0
M  V30 675 O 62.226 0.0786535 1.90638 0
M  V30 676 C 59.366 0.601645 3.39815 0
M  V30 677 C 58.479 1.75456 3.94765 0
M  V30 678 C 57.614 1.29482 5.15177 0
M  V30 679 C 56.653 2.41873 5.62284 0
M  V30 680 N 55.79 1.96885 6.73929 0
M  V30 681 H 60.63 1.943 2.25946 0
M  V30 682 H 58.167 0.968001 1.10762 0
M  V30 683 H 60.125 0.346854 4.15756 0
M  V30 684 H 58.755 -0.295803 3.21442 0
M  V30 685 H 57.807 2.12346 3.15616 0
M  V30 686 H 59.119 2.59965 4.25699 0
M  V30 687 H 58.273 0.997923 5.98437 0
M  V30 688 H 57.012 0.420046 4.85888 0
M  V30 689 H 56.017 2.72342 4.77608 0
M  V30 690 H 57.242 3.29881 5.93595 0
M  V30 691 H 55.188 1.11782 6.46406 0
M  V30 692 H 55.105 2.74956 7.04227 0
M  V30 693 H 56.373 1.70289 7.60672 0
M  V30 694 N 60.6021 -1.18246 1.0419 0
M  V30 695 C 61.8271 -1.92736 0.765996 0
M  V30 696 C 62.2521 -1.75728 -0.67091 0
M  V30 697 O 61.6101 -1.06825 -1.46486 0
M  V30 698 C 61.6581 -3.42148 1.13875 0
M  V30 699 O 60.7621 -4.11548 0.264954 0
M  V30 700 H 60.1031 -0.601238 0.281797 0
M  V30 701 H 62.6331 -1.49942 1.39207 0
M  V30 702 H 62.6431 -3.92858 1.1012 0
M  V30 703 H 61.3181 -3.53848 2.18551 0
M  V30 704 H 59.8951 -3.71137 0.362226 0
M  V30 705 N 62.0802 -0.821533 -1.34494 0
M  V30 706 C 63.0132 -0.187704 -2.27427 0
M  V30 707 C 63.9912 0.65507 -1.48821 0
M  V30 708 O 65.1752 0.619111 -1.78043 0
M  V30 709 C 62.3022 0.737996 -3.30562 0
M  V30 710 C 61.3482 -0.0270713 -4.26491 0
M  V30 711 S 62.1812 -1.37329 -5.17592 0
M  V30 712 C 63.3372 -0.452427 -6.24263 0
M  V30 713 H 63.5702 -0.975598 -2.80837 0
M  V30 714 H 61.1032 -0.61736 -1.4152 0
M  V30 715 H 63.0612 1.26654 -3.90473 0
M  V30 716 H 61.7222 1.4994 -2.76001 0
M  V30 717 H 60.9152 0.6766 -4.99438 0
M  V30 718 H 60.5172 -0.48612 -3.70827 0
M  V30 719 H 62.8092 0.356557 -6.76561 0
M  V30 720 H 63.7522 -1.15153 -6.98674 0
M  V30 721 H 64.1602 -0.0414755 -5.64485 0
M  V30 722 N 63.5583 1.46682 -0.576371 0
M  V30 723 C 64.4883 2.33028 0.148397 0
M  V30 724 C 65.4693 1.44961 0.889956 0
M  V30 725 O 66.6543 1.73789 0.866662 0
M  V30 726 C 63.7843 3.27117 1.1667 0
M  V30 727 C 62.7383 4.24575 0.540386 0
M  V30 728 C 62.0643 5.08126 1.6647 0
M  V30 729 C 63.3643 5.19722 -0.518331 0
M  V30 730 H 65.0583 2.93875 -0.572509 0
M  V30 731 H 62.6043 1.41315 -0.276768 0
M  V30 732 H 64.5573 3.86374 1.68204 0
M  V30 733 H 63.2813 2.64364 1.9178 0
M  V30 734 H 61.9403 3.66571 0.0461769 0
M  V30 735 H 61.5883 4.41762 2.40531 0
M  V30 736 H 61.2883 5.74122 1.25131 0
M  V30 737 H 62.8123 5.70246 2.18293 0
M  V30 738 H 64.2263 5.73232 -0.0883058 0
M  V30 739 H 62.6233 5.94026 -0.851679 0
M  V30 740 H 63.6933 4.64037 -1.40703 0
M  V30 741 N 65.0364 0.313813 1.54444 0
M  V30 742 C 66.2834 -0.291675 2.00388 0
M  V30 743 C 66.6114 -1.52904 1.2021 0
M  V30 744 O 65.8664 -1.93833 0.269707 0
M  V30 745 C 66.1654 -0.680386 3.50864 0
M  V30 746 C 65.8314 0.456699 4.48581 0
M  V30 747 C 64.4934 0.768824 4.75018 0
M  V30 748 C 66.8454 1.22098 5.06697 0
M  V30 749 C 64.1734 1.84812 5.56831 0
M  V30 750 C 66.5254 2.29029 5.89685 0
M  V30 751 C 65.1894 2.60834 6.14428 0
M  V30 752 H 64.4594 -0.106732 0.733273 0
M  V30 753 H 67.1064 0.43557 1.86481 0
M  V30 754 H 65.4114 -1.48791 3.62448 0
M  V30 755 H 67.1084 -1.16026 3.83847 0
M  V30 756 H 63.6984 0.203337 4.28117 0
M  V30 757 H 67.8824 0.993096 4.86263 0
M  V30 758 H 63.1384 2.09912 5.74236 0
M  V30 759 H 67.3124 2.887 6.33739 0
M  V30 760 H 64.9394 3.44596 6.77612 0
M  V30 761 N 66.5145 -1.57545 0.0417849 0
M  V30 762 C 67.4615 -2.10977 -0.935805 0
M  V30 763 C 68.4315 -1.01486 -1.31491 0
M  V30 764 O 69.6165 -1.2898 -1.40602 0
M  V30 765 C 66.7565 -2.65169 -2.2086 0
M  V30 766 C 65.8695 -3.88714 -1.88482 0
M  V30 767 C 65.0045 -4.31254 -3.1015 0
M  V30 768 C 64.0435 -5.47524 -2.7365 0
M  V30 769 N 63.1805 -5.85162 -3.87982 0
M  V30 770 H 68.0205 -2.94218 -0.473249 0
M  V30 771 H 65.5575 -1.45415 -0.221981 0
M  V30 772 H 67.5155 -2.94685 -2.95325 0
M  V30 773 H 66.1455 -1.8474 -2.64709 0
M  V30 774 H 65.1975 -3.65849 -1.04205 0
M  V30 775 H 66.5095 -4.73245 -1.57608 0
M  V30 776 H 65.6635 -4.62273 -3.92923 0
M  V30 777 H 64.4025 -3.45516 -3.44195 0
M  V30 778 H 63.4075 -5.16187 -1.89291 0
M  V30 779 H 64.6325 -6.34971 -2.40807 0
M  V30 780 H 62.5785 -5.02377 -4.21846 0
M  V30 781 H 62.4955 -6.64362 -3.60775 0
M  V30 782 H 63.7635 -6.20791 -4.71422 0
M  V30 783 N 67.9926 0.231505 -1.5589 0
M  V30 784 C 69.4086 0.580748 -1.48659 0
M  V30 785 C 69.6086 1.87617 -0.73498 0
M  V30 786 O 68.6646 2.51046 -0.270586 0
M  V30 787 C 69.9776 0.669202 -2.93159 0
M  V30 788 C 71.5256 0.760499 -3.03621 0
M  V30 789 C 72.0006 0.880383 -4.49459 0
M  V30 790 N 73.4916 0.944861 -4.53461 0
M  V30 791 C 74.2266 1.05716 -5.63571 0
M  V30 792 N 73.7226 1.13403 -6.83456 0
M  V30 793 N 75.5156 1.09152 -5.514 0
M  V30 794 H 67.6666 -0.618695 -2.03189 0
M  V30 795 H 69.9296 -0.215728 -0.923128 0
M  V30 796 H 69.6356 -0.212904 -3.51055 0
M  V30 797 H 69.5096 1.5361 -3.44505 0
M  V30 798 H 71.8966 1.63305 -2.45796 0
M  V30 799 H 71.9776 -0.131864 -2.5546 0
M  V30 800 H 71.6216 0.0123284 -5.07899 0
M  V30 801 H 71.5516 1.78802 -4.95316 0
M  V30 802 H 74.0426 0.896176 -3.6712 0
M  V30 803 H 74.3556 1.21921 -7.63122 0
M  V30 804 H 72.7006 1.10333 -6.86186 0
M  V30 805 H 75.8916 1.02805 -4.56671 0
M  V30 806 H 76.0646 1.17558 -6.37247 0
M  V30 807 N 69.4707 1.49531 0.497807 0
M  V30 808 C 70.3807 1.69176 1.62532 0
M  V30 809 C 71.3967 0.5744 1.64246 0
M  V30 810 O 72.5727 0.849497 1.82608 0
M  V30 811 C 69.6377 1.75695 2.98885 0
M  V30 812 C 68.6987 2.9929 3.07773 0
M  V30 813 C 67.9317 3.05488 4.37622 0
M  V30 814 O 68.1547 2.19192 5.26603 0
M  V30 815 O 67.0887 3.9798 4.51548 0
M  V30 816 H 70.9147 2.647 1.48887 0
M  V30 817 H 68.4997 1.3331 0.674441 0
M  V30 818 H 70.3817 1.82317 3.79919 0
M  V30 819 H 69.0567 0.8335 3.12785 0
M  V30 820 H 67.9637 2.98183 2.25915 0
M  V30 821 H 69.2967 3.91125 2.98801 0
M  V30 822 N 70.9488 -0.749086 1.3866 0
M  V30 823 C 71.8788 -1.8764 1.38973 0
M  V30 824 C 72.8598 -1.68178 0.255004 0
M  V30 825 O 74.0448 -1.88704 0.458754 0
M  V30 826 C 71.1748 -3.25222 1.21851 0
M  V30 827 C 70.1288 -3.59295 2.32575 0
M  V30 828 C 69.4548 -4.95663 2.00555 0
M  V30 829 C 70.7548 -3.63709 3.7485 0
M  V30 830 H 72.4488 -1.87635 2.3331 0
M  V30 831 H 69.9948 -0.901329 1.12303 0
M  V30 832 H 71.9478 -4.03746 1.20695 0
M  V30 833 H 70.6718 -3.25719 0.239775 0
M  V30 834 H 69.3308 -2.83093 2.32925 0
M  V30 835 H 68.9788 -4.92724 1.01154 0
M  V30 836 H 68.6788 -5.19429 2.74714 0
M  V30 837 H 70.2028 -5.7656 2.01024 0
M  V30 838 H 71.6168 -4.32338 3.76506 0
M  V30 839 H 70.0138 -3.98986 4.48252 0
M  V30 840 H 71.0838 -2.63834 4.06841 0
M  V30 841 N 72.4269 -1.23603 -0.977757 0
M  V30 842 C 73.3589 -0.977369 -2.07317 0
M  V30 843 C 74.3719 0.0495845 -1.62724 0
M  V30 844 O 75.5609 -0.186261 -1.77526 0
M  V30 845 C 72.6609 -0.451216 -3.35883 0
M  V30 846 C 71.8339 -1.53896 -4.09432 0
M  V30 847 C 70.8929 -1.01721 -5.16274 0
M  V30 848 O 69.9189 -1.70676 -5.43009 0
M  V30 849 N 71.1209 0.153594 -5.80297 0
M  V30 850 H 73.8859 -1.92047 -2.30082 0
M  V30 851 H 71.4469 -1.14497 -1.14465 0
M  V30 852 H 73.4389 -0.0871574 -4.04606 0
M  V30 853 H 72.0089 0.397368 -3.10064 0
M  V30 854 H 71.2289 -2.07566 -3.35127 0
M  V30 855 H 72.5169 -2.27037 -4.55337 0
M  V30 856 H 71.9149 0.730323 -5.60966 0
M  V30 857 H 70.4719 0.458892 -6.50183 0
M  V30 858 N 73.905 1.17692 -1.04816 0
M  V30 859 C 75.316 1.69501 -0.782698 0
M  V30 860 C 75.667 1.83456 0.695577 0
M  V30 861 O 74.792 1.51942 1.54086 0
M  V30 862 C 75.387 3.07874 -1.41419 0
M  V30 863 C 73.946 3.56864 -1.19686 0
M  V30 864 C 73.093 2.3322 -1.50012 0
M  V30 865 H 76.044 1.02262 -1.2136 0
M  V30 866 H 76.065 3.71528 -0.821428 0
M  V30 867 H 75.577 2.97685 -2.49009 0
M  V30 868 H 73.678 3.72337 -0.140043 0
M  V30 869 H 73.791 4.39851 -1.89916 0
M  V30 870 H 72.155 2.37501 -0.920071 0
M  V30 871 H 72.938 2.25644 -2.58727 0
M  V30 872 N 75.3831 0.828654 1.34056 0
M  V30 873 C 76.6081 0.431637 2.02859 0
M  V30 874 C 77.0331 -0.956339 1.61975 0
M  V30 875 O 76.3911 -1.62338 0.807228 0
M  V30 876 C 76.4391 0.548323 3.56407 0
M  V30 877 O 75.5431 -0.429556 4.10157 0
M  V30 878 H 74.8841 0.176886 0.640006 0
M  V30 879 H 77.4141 1.12066 1.71179 0
M  V30 880 H 77.4241 0.426196 4.05768 0
M  V30 881 H 76.0991 1.5606 3.8551 0
M  V30 882 H 74.6761 -0.265836 3.71951 0
M  V30 883 N 76.8612 -1.46375 0.584142 0
M  V30 884 C 77.7712 -2.34115 -0.150728 0
M  V30 885 C 78.7872 -1.49838 -0.884567 0
M  V30 886 O 79.9632 -1.82704 -0.847429 0
M  V30 887 C 77.0282 -3.2705 -1.15062 0
M  V30 888 C 76.0892 -4.27228 -0.421293 0
M  V30 889 C 75.3222 -5.15722 -1.37355 0
M  V30 890 O 75.5452 -5.07176 -2.61014 0
M  V30 891 O 74.4792 -5.95383 -0.883355 0
M  V30 892 H 78.3052 -2.98309 0.569708 0
M  V30 893 H 75.8902 -1.45373 0.344535 0
M  V30 894 H 77.7722 -3.84381 -1.72712 0
M  V30 895 H 76.4472 -2.65451 -1.8525 0
M  V30 896 H 75.3542 -3.7358 0.197085 0
M  V30 897 H 76.6872 -4.91616 0.239641 0
M  V30 898 N 78.3393 -0.321999 -1.54275 0
M  V30 899 C 79.2493 0.553631 -2.27974 0
M  V30 900 C 80.2653 1.13054 -1.32268 0
M  V30 901 O 81.4413 1.15084 -1.6528 0
M  V30 902 C 78.5063 1.69927 -3.02201 0
M  V30 903 C 77.5673 1.15433 -4.1349 0
M  V30 904 C 76.8003 2.24537 -4.84168 0
M  V30 905 O 77.0233 3.44852 -4.5435 0
M  V30 906 O 75.9573 1.90044 -5.7111 0
M  V30 907 H 79.7833 -0.0448345 -3.03667 0
M  V30 908 H 77.3683 -0.0877418 -1.49142 0
M  V30 909 H 79.2503 2.3663 -3.48689 0
M  V30 910 H 77.9253 2.28395 -2.29385 0
M  V30 911 H 76.8323 0.452436 -3.71354 0
M  V30 912 H 78.1653 0.614805 -4.88345 0
M  V30 913 N 79.8174 1.5752 -0.0501392 0
M  V30 914 C 81.0634 1.92936 0.624798 0
M  V30 915 C 81.3964 0.928685 1.70555 0
M  V30 916 O 80.6714 -0.0454779 1.94447 0
M  V30 917 C 80.9544 3.38737 1.22185 0
M  V30 918 C 80.8074 4.49552 0.149218 0
M  V30 919 C 82.1264 3.84913 2.13378 0
M  V30 920 H 79.2454 0.701604 0.225657 0
M  V30 921 H 81.8874 1.89671 -0.111693 0
M  V30 922 H 80.0374 3.4165 1.84953 0
M  V30 923 H 81.7094 4.58768 -0.482648 0
M  V30 924 H 79.9524 4.30638 -0.522841 0
M  V30 925 H 80.6234 5.48653 0.606966 0
M  V30 926 H 83.0994 3.8387 1.60572 0
M  V30 927 H 81.9754 4.87584 2.52097 0
M  V30 928 H 82.2364 3.21611 3.03346 0
M  V30 929 N 81.2955 -0.223234 1.56011 0
M  V30 930 C 82.5235 -0.964812 1.83027 0
M  V30 931 C 82.9385 -1.78013 0.62904 0
M  V30 932 O 82.2955 -1.78008 -0.402414 0
M  V30 933 C 82.3465 -1.88373 3.08542 0
M  V30 934 O 82.0675 -1.10137 4.2403 0
M  V30 935 C 83.5685 -2.73934 3.48533 0
M  V30 936 H 80.7885 -0.282842 0.608475 0
M  V30 937 H 83.3325 -0.238971 2.03099 0
M  V30 938 H 81.4875 -2.56354 2.9045 0
M  V30 939 H 81.9015 -1.72501 4.95322 0
M  V30 940 H 83.3755 -3.34117 4.39397 0
M  V30 941 H 83.8525 -3.46244 2.70207 0
M  V30 942 H 84.4585 -2.11369 3.69057 0
M  V30 943 N 82.7736 -1.49793 -0.48987 0
M  V30 944 C 84.0196 -1.61049 -1.24236 0
M  V30 945 C 84.3746 -0.298412 -1.90072 0
M  V30 946 O 83.6676 0.702262 -1.78266 0
M  V30 947 C 83.8616 -2.71488 -2.32441 0
M  V30 948 C 83.6906 -4.13308 -1.77218 0
M  V30 949 C 82.4606 -4.79955 -1.58023 0
M  V30 950 C 84.6586 -4.98176 -1.27772 0
M  V30 951 N 82.6406 -6.06052 -0.978465 0
M  V30 952 C 84.0116 -6.14843 -0.798 0
M  V30 953 C 86.0666 -4.84091 -1.16449 0
M  V30 954 C 84.7696 -7.18975 -0.216245 0
M  V30 955 C 86.7956 -5.88382 -0.596698 0
M  V30 956 C 86.1576 -7.04285 -0.127262 0
M  V30 957 H 82.2566 -0.643611 -0.444172 0
M  V30 958 H 84.8406 -1.86842 -0.54754 0
M  V30 959 H 83.0116 -2.47449 -2.99372 0
M  V30 960 H 84.7436 -2.72205 -2.99477 0
M  V30 961 H 81.4986 -4.36936 -1.82712 0
M  V30 962 H 81.9226 -6.73407 -0.696534 0
M  V30 963 H 86.5646 -3.94786 -1.5134 0
M  V30 964 H 84.2826 -8.0797 0.144903 0
M  V30 965 H 87.8686 -5.79545 -0.511716 0
M  V30 966 H 86.7486 -7.83606 0.30523 0
M  V30 967 N 84.2517 0.741722 -1.39055 0
M  V30 968 C 85.1987 1.85566 -1.37237 0
M  V30 969 C 86.1687 1.64457 -0.233072 0
M  V30 970 O 87.3537 1.85957 -0.427147 0
M  V30 971 C 84.4937 3.23004 -1.215 0
M  V30 972 C 83.6067 3.55864 -2.44918 0
M  V30 973 C 82.7417 4.82669 -2.21821 0
M  V30 974 C 81.7807 5.08351 -3.40948 0
M  V30 975 N 80.9177 6.26356 -3.17211 0
M  V30 976 H 85.7577 1.86455 -2.32462 0
M  V30 977 H 83.2947 0.911176 -1.15482 0
M  V30 978 H 85.2527 4.02331 -1.10389 0
M  V30 979 H 83.8827 3.21411 -0.29908 0
M  V30 980 H 82.9347 2.7129 -2.66657 0
M  V30 981 H 84.2467 3.70765 -3.33668 0
M  V30 982 H 83.4007 5.69962 -2.07914 0
M  V30 983 H 82.1397 4.69929 -1.30454 0
M  V30 984 H 81.1447 4.19522 -3.55361 0
M  V30 985 H 82.3697 5.22981 -4.33207 0
M  V30 986 H 80.3157 6.14917 -2.28502 0
M  V30 987 H 80.2327 6.41813 -3.99515 0
M  V30 988 H 81.5007 7.16506 -3.06984 0
M  V30 989 O 85.7687 1.35246 0.882646 0
M  V30 990 H 86.4597 1.20069 1.51997 0
M  V30 END ATOM
M  V30 BEGIN BOND
M  V30 END BOND
M  V30 END CTAB
M  END
$$$$
